Circuit: * C:\Users\Emanuel\Desktop\DCE-Amplificador-Clase-D\Calculo de realimentador\Simulacion\GananciaDeLazo.asc

Direct Newton iteration for .op point succeeded.

Date: Tue Aug 17 00:46:31 2021
Total elapsed time: 0.135 seconds.

tnom = 27
temp = 27
method = trap
totiter = 26
traniter = 0
tranpoints = 0
accept = 0
rejected = 0
matrix size = 86
fillins = 68
solver = Alternate
Matrix Compiler1:     458 opcodes
Matrix Compiler2: 9.56 KB object code size
