Circuit: * C:\Users\Emanuel\Desktop\DCE-Amplificador-Clase-D\Calculo de realimentador\Simulacion\GananciaDeLazo.asc

WARNING: Less than two connections to node N017.  This node is used by L:U6:O.
Direct Newton iteration for .op point succeeded.

Date: Thu Jun 24 10:08:47 2021
Total elapsed time: 0.241 seconds.

tnom = 27
temp = 27
method = trap
totiter = 26
traniter = 0
tranpoints = 0
accept = 0
rejected = 0
matrix size = 286
fillins = 240
solver = Normal
Matrix Compiler1:    1529 opcodes
Matrix Compiler2: 28.43 KB object code size
