Circuit: * C:\Users\Emanuel\Desktop\DCE-Amplificador-Clase-D\Calculo de realimentador\Simulacion\GananciaDeLazo.asc

Direct Newton iteration for .op point succeeded.

Date: Thu Jul 29 01:35:27 2021
Total elapsed time: 0.095 seconds.

tnom = 27
temp = 27
method = trap
totiter = 26
traniter = 0
tranpoints = 0
accept = 0
rejected = 0
matrix size = 86
fillins = 68
solver = Normal
Matrix Compiler1:     458 opcodes
Matrix Compiler2: 8.37 KB object code size
