
**** 11/12/20 00:27:05 ****** PSpice 17.2.0 (March 2016) ****** ID# 0 ********

 ** Profile: "Esquematico-bias"  [ C:\Users\Emanuel\Desktop\Amplificador\amplificador clase d-pspicefiles\esquematico\bias.sim ] 


 ****     CIRCUIT DESCRIPTION


******************************************************************************




** Creating circuit file "bias.cir" 
** WARNING: THIS AUTOMATICALLY GENERATED FILE MAY BE OVERWRITTEN BY SUBSEQUENT SIMULATIONS

*Libraries: 
* Profile Libraries :
* Local Libraries :
.LIB "../../../libraries/phb27nq10t/phb27nq10t.lib" 
.LIB "../../../libraries/ucc20520_pspice_trans/ucc20520_trans.lib" 
* From [PSPICE NETLIST] section of C:\Users\Emanuel\AppData\Roaming\SPB_Data\cdssetup\OrCAD_PSpice\17.2.0\PSpice.ini file:
.lib "nom.lib" 

*Analysis directives: 
.TRAN  0 3m 1m 
.FOUR 5E3 5 V([OUT]) 
.OPTIONS NOMOD
.OPTIONS ADVCONV
.OPTIONS NUMDGT= 12
.OPTIONS METHOD= Default
.OPTIONS GMINSTEPS= 10
.OPTIONS SPEED_LEVEL= 0
.AUTOCONVERGE ITL1=1000 ITL2=1000 ITL4=1000 RELTOL=0.05 ABSTOL=1.0E-6 VNTOL=.001 PIVTOL=1.0E-10 
.PROBE64 V(alias(*)) I(alias(*)) W(alias(*)) D(alias(*)) NOISE(alias(*)) 
.INC "..\Esquematico.net" 



**** INCLUDING Esquematico.net ****
* source AMPLIFICADOR CLASE D
X_U1         ERROR VTRIANG 15V -15V PWM 0 LM311
R_R1         PWM 5V  1k TC=0,0 
V_V1         VTRIANG 0  
+PULSE -1.5 1.5 1p 2.5u 2.5u 1p 5u
V_V2         SIGNAL_IN 0 DC 0 AC 0
+SIN 0 1.1 5k 1p 0 0
R_R3         0 N16927  1k TC=0,0 
R_R2         N16927 VS  19k TC=0,0 
X_U2         N16927 N16945 15V -15V N16945 AD817A/AD
R_R18         SIGNAL_IN N47439  1k TC=0,0 
C_C17         0 N47439  220p  TC=0,0 
R_R19         0 N47439  82k TC=0,0 
X_U3         N47439 N48033 15V -15V ERROR AD817A/AD
R_R20         N48033 N16945  1k TC=0,0 
R_R21         N48033 ERROR  82k TC=0,0 
C_C18         ERROR N48033  220p  TC=0,0 
X_U4         N48657 N48472 0 N53048 N53052 N53118 N53142 HO LO PWM 5V 5V N49599
+  N48936 VS VEE UCC20520_TRANS
R_R22         0 N48472  2.2k TC=0,0 
C_C19         0 N48472  2.2n  TC=0,0 
R_R23         0 N48657  20 TC=0,0 
C_C20         N48657 5V  1u  TC=0,0 
V_V8         N48936 VEE 12
V_V6         VCC 0 30
V_V5         5V 0 5
V_V3         15V 0 15
V_V4         0 -15V 15
V_V7         0 VEE 30
R_R24         N48936 N49537  10 TC=0,0 
C_C21         VS N49599  1u  TC=0,0 
R_R25         N49892 LO  3.3 TC=0,0 
R_R26         N49892 N49937  1.2 TC=0,0 
R_R27         N50066 N50062  1.2 TC=0,0 
R_R28         N50066 HO  3.3 TC=0,0 
C_C22         VEE N49892  1n  TC=0,0 
C_C23         VS N50066  1n  TC=0,0 
C_C24         0 OUT  330n  TC=0,0 
R_R29         0 OUT  8 TC=0,0 
L_L1         VS OUT  33u  
R_R30         N53048 0  2.2k TC=0,0 
R_R31         N53052 0  2.2k TC=0,0 
R_R33         N53142 0  2.2k TC=0,0 
R_R32         N53118 0  2.2k TC=0,0 
D_D4         N49537 N49581 DMBRB20100CT/ON 
D_D5         N50062 HO DMBRB20100CT/ON 
D_D6         N49937 LO DMBRB20100CT/ON 
X_U5         VCC N50066 VS PHB27NQ10T 
X_U6         VS N49892 VEE PHB27NQ10T 
R_R36         N49581 N49599  10m TC=0,0 

**** RESUMING bias.cir ****
.END

**** 11/12/20 00:27:05 ****** PSpice 17.2.0 (March 2016) ****** ID# 0 ********

 ** Profile: "Esquematico-bias"  [ C:\Users\Emanuel\Desktop\Amplificador\amplificador clase d-pspicefiles\esquematico\bias.sim ] 


 ****     INITIAL TRANSIENT SOLUTION       TEMPERATURE =   27.000 DEG C


******************************************************************************



 NODE   VOLTAGE     NODE   VOLTAGE     NODE   VOLTAGE     NODE   VOLTAGE


(   5V) 5.0000000000                  (   HO)-792.7653710E-06                   

(   LO)-30.0000000000                 (   VS)-122.5167213E-06                   

(  15V) 15.0000000000                 (  OUT)-122.5167213E-06                   

(  PWM) 4.9751243682                  (  VCC) 30.0000000000                     

(  VEE)-30.0000000000                 ( -15V)-15.0000000000                     

(ERROR) .5076722890                   (N16927)-.0060993862                      

(N16945)-.0040986186                  (N47439)-.0063374501                      

(N48033)-.0044662198                  (N48472) 4.9977283003                     

(N48657) 0.0000000000                 (N48936)-18.0000000000                    

(N49537)-17.9998500000                (N49581)-.0014530514                      

(N49599)-.0014529014                  (N49892)-30.0000000000                    

(N49937)-30.0000000000                (N50062)-792.7653710E-06                  

(N50066)-792.7653710E-06              (N53048) 0.0000000000                     

(N53052) 0.0000000000                 (N53118) 0.0000000000                     

(N53142) 0.0000000000                 (X_U1.7)-.3891808636                      

(X_U1.8)-14.3497023020                (X_U1.9)-14.9820722860                    

(X_U2.3)-.0040996418                  (X_U2.4) 14.4645671390                    

(X_U2.5) 14.4645681490                (X_U2.6)-.7600401531                      

(X_U2.7)-.7600411275                  (X_U2.8)-1.2765406474                     

(X_U2.9)-.0040427861                  (X_U3.3)-.0043377208                      

(X_U3.4) 14.4646310720                (X_U3.5) 14.4645042160                    

(X_U3.6)-.7604046659                  (X_U3.7)-.7602822947                      

(X_U3.8)-1.2768434874                 (X_U3.9) .5077247926                      

(X_U5.4) 2.9357830691                 (X_U5.5) 30.0000000000                    

(X_U5.6)-792.7653710E-06              (X_U6.4)-27.0634320990                    

(X_U6.5)-122.5167235E-06              (X_U6.6)-30.0000000000                    

(VTRIANG)-1.5000000000                (X_U1.10) .0179277136                     

(X_U1.11) .0179277136                 (X_U1.21) .9576722890                     

(X_U1.22)-1.0500000000                (X_U2.10) 12.5700000000                   

(X_U2.11)-12.5700000000               (X_U2.14)-.0050990024                     

(X_U2.15)-5.098997296E-09             (X_U2.31)-.0040427820                     

(X_U2.32)-4042.7820449000             (X_U2.33)-.0040427780                     

(X_U2.34)-4042.7780021000             (X_U2.35)-.0040427740                     

(X_U2.36)-.0040427699                 (X_U2.40)-.0040427660                     

(X_U2.41)-.0440427660                 (X_U2.42) .0359572340                     

(X_U2.45)-.0040986186                 (X_U2.60)-.5087694303                     

(X_U2.61) 0.0000000000                (X_U2.62) 0.0000000000                    

(X_U2.98) 0.0000000000                (X_U3.10) 12.5700000000                   

(X_U3.11)-12.5700000000               (X_U3.14)-.0054018349                     

(X_U3.15)-5.401829834E-09             (X_U3.31) .5077242848                     

(X_U3.32) 507.7242848E+03             (X_U3.33) .5077237771                     

(X_U3.34) 507.7237771E+03             (X_U3.35) .5077232694                     

(X_U3.36) .5077227617                 (X_U3.40) .5077222538                     

(X_U3.41) .4677222538                 (X_U3.42) .5477222538                     

(X_U3.45) .5076722890                 (X_U3.60)-.5058882656                     

(X_U3.61) 0.0000000000                (X_U3.62) 0.0000000000                    

(X_U3.98) 0.0000000000                (X_U5.11) 30.0000000000                   

(X_U5.12) 30.0000000000               (X_U5.22)-792.7653710E-06                 

(X_U5.33)-122.5167213E-06             (X_U6.11)-122.5167213E-06                 

(X_U6.12)-122.5167213E-06             (X_U6.22)-30.0000000000                   

(X_U6.33)-30.0000000000               (X_U4.DIS) 0.0000000000                   

(SIGNAL_IN) 0.0000000000              (X_U4.DRVA) 0.0000000000                  

(X_U4.DRVB) 0.0000000000              (X_U4.NO_DT) 0.0000000000                 

(X_U4.PWMIN) 1.0000000000             (X_U4.UVLO1) 5.0000000000                 

(X_U4.UVLO2) 0.0000000000             (X_U4.INA_OK) 5.0000000000                

(X_U4.INB_OK) 0.0000000000            (X_U4.PWMINB) 0.0000000000                

(X_U4.UVLO2B) 5.0000000000            (X_U4.INA_INT) 4.9751243682               

(X_U4.INA_OKD) 5.0000000000           (X_U4.INA_PRE) 5.0000000000               

(X_U4.INB_OKD) 0.0000000000           (X_U4.INB_PRE) 0.0000000000               

(X_U4.VCCI_INT) 5.0000000000          (X_U4.DRVA_PASS) 0.0000000000             

(X_U4.DRVB_PASS) 0.0000000000         (X_U4.FAULT_INP) 5.0000000000             

(X_U4.N16668890) 8.5000000000         (X_U4.N16668898) 8.5000000000             

(X_U4.N16669068) 0.0000000000         (X_U4.N16669308)-792.7653710E-06          

(X_U4.N16669580) 5.0000000000         (X_U4.N16669674) 0.0000000000             

(X_U4.N16669834) 2.7000000000         (X_U4.N16669842) 2.5000000000             

(X_U4.N16669858) 5.0000000000         (X_U4.N16670120) 90.86798720E-06          

(X_U4.N16670154) 2.0000000000         (X_U4.N16670162)-22.27009432E-18          

(X_U4.N16670228) 0.0000000000         (X_U4.N16670408) 0.0000000000             

(X_U4.N16670672) 1.0000000000         (X_U4.N16670780)-.0013303846              

(X_U4.N16670790) 0.0000000000         (X_U4.N16670816) 4.9977283003             

(X_U4.N16670888) 8.5000000000         (X_U4.N16670896) 8.0000000000             

(X_U4.N16671044) 12.0000000000        (X_U4.N16671166) 0.0000000000             

(X_U4.N16671236) 0.0000000000         (X_U4.N16671468) 0.0000000000             

(X_U4.N16671552) 8.020000000E-15      (X_U4.N16671580) 2.0000000000             

(X_U4.N16671640) 0.0000000000         (X_U4.N16671702) 0.0000000000             

(X_U4.N16671830) 5.0000000000         (X_U4.N16671850) 0.0000000000             

(X_U4.N16672106) 1.0000000000         (X_U4.N16672276) 1.8000000000             

(X_U4.N16672306) 1.0000000000         (X_U4.N16672528) 1.0000000000             

(X_U4.N16672594) 0.0000000000         (X_U4.N16672776)-18.0000000000            

(X_U4.N16672784)-30.0000000000        (X_U4.N16672968)-30.0000000000            

(X_U4.N16673112) 0.0000000000         (X_U4.N16673358) 0.0000000000             

(X_U4.N16673432) 1.8000000000         (X_U4.N16673492) 1.8000000000             

(X_U4.N16673790) 0.0000000000         (X_U4.N16698404) 5.0000000000             

(X_U4.N16970878)-.0014528952          (X_U4.N17051744) 5.0000000000             

(X_U4.N17051757) 5.0000000000         (X_U4.N17051771)-25.0000000000            

(X_U4.N17088411)-628.7405482E-06      (X_U4.N17110019) 5.0000000000             

(X_U4.N17110021) 5.0000000000         (X_U4.N17110038) 4.9998774833             

(X_U4.N17127259)-122.5167279E-06      (X_U4.N17153666) 4.9999999950             

(X_U4.N17167704)-29.9999999400        (X_U4.N17167706) 4.9999999950             

(X_U4.N17196585) 0.0000000000         (X_U4.N17198437) 5.0000000000             

(X_U4.N17201974) 5.0000000000         (X_U4.N17396123)-15.66291528E-21          

(X_U4.N17407797) 5.0000000000         (X_U4.N167201110)-73.22005887E-21         

(X_U4.N167208610) 5.0000000000        (X_U4.N167216030) 5.0000000000            

(X_U4.X_U42.YINT) 0.0000000000        (X_U4.X_U43.YINT) 5.0000000000            

(X_U4.X_U44.YINT) 5.0000000000        (X_U4.X_U54.YINT) 5.0000000000            

(X_U4.X_U61.YINT) 5.0000000000        (X_U4.X_U62.YINT) 5.0000000000            

(X_U4.DEAD_THRESH) .0022716997        (X_U4.UVLO1_DELAYED) 5.0000000000         

(X_U4.UVLO2_DELAYED) 10.76765572E-18  (X_U4.UVLO2B_DELAYED) 5.0000000000    




    VOLTAGE SOURCE CURRENTS
    NAME         CURRENT

    V_V1         1.996E-07
    V_V2        -6.337E-06
    V_V8        -1.197E-03
    V_V6         1.281E-09
    V_V5        -4.797E-03
    V_V3        -1.932E-02
    V_V4        -1.933E-02
    V_V7        -1.500E-05
    X_U1.vi1    -1.594E-11
    X_U1.vi2     1.996E-07
    X_U1.v1     -4.958E-12
    X_U2.V1      1.258E-11
    X_U2.V2      1.258E-11
    X_U2.V7     -5.188E-13
    X_U2.V8      3.491E-06
    X_U2.V5     -4.781E-14
    X_U2.V6     -4.793E-14
    X_U3.V1      1.207E-11
    X_U3.V2      1.309E-11
    X_U3.V7     -5.159E-13
    X_U3.V8      3.123E-06
    X_U3.V5     -4.782E-14
    X_U3.V6     -4.792E-14
    X_U4.V_V8   -4.010E-12
    X_U4.V_V1    0.000E+00
    X_U4.V_V10   0.000E+00
    X_U4.V_V11   0.000E+00
    X_U4.V_V6    0.000E+00
    X_U4.V_V12   0.000E+00
    X_U4.V_V13   0.000E+00
    X_U4.V_V2    0.000E+00
    X_U4.V_V14   0.000E+00
    X_U4.V_V9    0.000E+00
    X_U4.V_V7    0.000E+00
    X_U4.V_V3    0.000E+00
    X_U4.V_V5   -4.543E-02
    X_U4.X_H1.VH_H1   2.272E-03

    TOTAL POWER DISSIPATION   7.10E-01  WATTS

Convergence problem in transient analysis at Time =  110.8E-06
         Time step =  1.536E-15, minimum allowable step size =  3.000E-15

  These voltages failed to converge:

    V(X_U5.22)                =   900.8045047450mV  \   909.3891359089mV
    V(X_U5.33)                =   984.0454988186mV  \   992.6298070401mV
    V(X_U5.6)                 =   900.1470549499mV  \   908.7313581635mV
    V(X_U5.4)                 =     4.13422216306V  \     4.14280645456V
    V(X_U6.11)                =  -642.3983603886mV  \  -641.0978878525mV
    V(X_U6.5)                 =  -666.8733256832mV  \  -665.5728242910mV
    V(X_U6.12)                =  -642.3983603886mV  \  -641.0978878525mV

  These supply currents failed to converge:

    I(X_U2.EREF)              =    13.4342380970pA  \    1.02687650050pA
    I(X_U3.EREF)              =   197.0190000727pA  \   -31.1183353391pA



  Last node voltages tried were:

 NODE   VOLTAGE     NODE   VOLTAGE     NODE   VOLTAGE     NODE   VOLTAGE


(   5V) 5.0000000000                  (   HO) .1265181767                       

(   LO)-20.2467323400                 (   VS) .1309160299                       

(  15V) 15.0000000000                 (  OUT)-120.2183558E-06                   

(  PWM) .1196513370                   (  VCC) 30.0000000000                     

(  VEE)-30.0000000000                 ( -15V)-15.0000000000                     

(ERROR)-.8173758515                   (N16927) .0846980576                      

(N16945) .0612013647                  (N47439)-.3622515338                      

(N48033)-.3534519012                  (N48472) 4.9977283003                     

(N48657) 21.31628207E-15              (N48936)-18.0000000000                    

(N49537)-18.0896688170                (N49581) .5407661612                      

(N49599) .5406764924                  (N49892)-23.8224528170                    

(N49937)-23.8226452330                (N50062) .1000079612                      

(N50066) .1000602857                  (N53048) 0.0000000000                     

(N53052) 0.0000000000                 (N53118) 0.0000000000                     

(N53142) 0.0000000000                 (X_U1.7) .2934431393                      

(X_U1.8)-228.3321747400               (X_U1.9)-14.2377995270                    

(X_U2.3) .0783636100                  (X_U2.4) 14.4852714610                    

(X_U2.5) 14.4438638270                (X_U2.6)-.6943276600                      

(X_U2.7)-.6779839104                  (X_U2.8)-1.2026557924                     

(X_U2.9) .0592669873                  (X_U3.3)-.3602345624                      

(X_U3.4) 14.4613142730                (X_U3.5) 14.4678210140                    

(X_U3.6)-1.1095546425                 (X_U3.7)-1.1160138507                     

(X_U3.8)-1.6292842535                 (X_U3.9)-.8197101214                      

(X_U5.4) 4.1342221631                 (X_U5.5) 29.2112946500                    

(X_U5.6) .9001470550                  (X_U6.4)-22.2900831050                    

(X_U6.5)-.6668733257                  (X_U6.6)-25.1761993700                    

(VTRIANG)-.4924040464                 (X_U1.10) .7622004734                     

(X_U1.11) .7622004734                 (X_U1.21)-.3673758515                     

(X_U1.22)-.0424040464                 (X_U2.10) 12.5700000000                   

(X_U2.11)-12.5700000000               (X_U2.14) .0729497112                     

(X_U2.15)-166.2931740E-06             (X_U2.31) .0429466231                     

(X_U2.32) 42.94662308E+03             (X_U2.33) .0755625462                     

(X_U2.34) 75.56254615E+03             (X_U2.35) .0924028199                     

(X_U2.36) .0792275963                 (X_U2.40) .0652935413                     

(X_U2.41) .0252935413                 (X_U2.42) .1052935413                     

(X_U2.45) .0612139674                 (X_U2.60)-.6197534913                     

(X_U2.61) 0.0000000000                (X_U2.62) 0.0000000000                    

(X_U2.98) 0.0000000000                (X_U3.10) 12.5700000000                   

(X_U3.11)-12.5700000000               (X_U3.14)-.3578517175                     

(X_U3.15) 338.6229284E-09             (X_U3.31)-.8174809467                     

(X_U3.32)-817.4809467E+03             (X_U3.33)-.8219334732                     

(X_U3.34)-821.9334732E+03             (X_U3.35)-.8247031720                     

(X_U3.36)-.8223874753                 (X_U3.40)-.8206397662                     

(X_U3.41)-.8606397662                 (X_U3.42)-.7806397662                     

(X_U3.45)-.8173765840                 (X_U3.60) .6139782851                     

(X_U3.61) 0.0000000000                (X_U3.62) 0.0000000000                    

(X_U3.98) 0.0000000000                (X_U5.11) 29.2112946500                   

(X_U5.12) 29.2112946500               (X_U5.22) .9008045047                     

(X_U5.33) .9840454988                 (X_U6.11)-.6423983604                     

(X_U6.12)-.6423983604                 (X_U6.22)-23.1554348430                   

(X_U6.33)-29.0156508250               (X_U4.DIS) 0.0000000000                   

(SIGNAL_IN)-.3673937386               (X_U4.DRVA) 0.0000000000                  

(X_U4.DRVB) 5.0000000000              (X_U4.NO_DT) 0.0000000000                 

(X_U4.PWMIN) 0.0000000000             (X_U4.UVLO1) 5.0000000000                 

(X_U4.UVLO2) 0.0000000000             (X_U4.INA_OK) 1.249999979E-18             

(X_U4.INB_OK) 5.0000000000            (X_U4.PWMINB) 1.0000000000                

(X_U4.UVLO2B) 5.0000000000            (X_U4.INA_INT) .1196513370                

(X_U4.INA_OKD) 1.249999979E-18        (X_U4.INA_PRE) 0.0000000000               

(X_U4.INB_OKD) 5.0000000000           (X_U4.INB_PRE) 5.0000000000               

(X_U4.VCCI_INT) 5.0000000000          (X_U4.DRVA_PASS) 0.0000000000             

(X_U4.DRVB_PASS) 5.0000000000         (X_U4.FAULT_INP) 5.0000000000             

(X_U4.N16668890) 8.5000000000         (X_U4.N16668898) 8.5000000000             

(X_U4.N16669068) 0.0000000000         (X_U4.N16669308) .1265181767              

(X_U4.N16669580) 1.249999979E-18      (X_U4.N16669674) 0.0000000000             

(X_U4.N16669834) 2.7000000000         (X_U4.N16669842) 2.5000000000             

(X_U4.N16669858) 5.0000000000         (X_U4.N16670120) 2.0004666881             

(X_U4.N16670154) 2.0000000000         (X_U4.N16670162) 5.0009266759             

(X_U4.N16670228) 5.0000000000         (X_U4.N16670408) 0.0000000000             

(X_U4.N16670672) 1.0000000000         (X_U4.N16670780) .4097604626              

(X_U4.N16670790) 0.0000000000         (X_U4.N16670816) 4.9977283012             

(X_U4.N16670888) 8.5000000000         (X_U4.N16670896) 8.0000000000             

(X_U4.N16671044) 12.0000000000        (X_U4.N16671166) 0.0000000000             

(X_U4.N16671236) 0.0000000000         (X_U4.N16671468) 5.0000000000             

(X_U4.N16671552) 1.3741963308         (X_U4.N16671580) 2.0000000000             

(X_U4.N16671640) 5.0000000000         (X_U4.N16671702) 4.9990352054             

(X_U4.N16671830) .0017671949          (X_U4.N16671850) 0.0000000000             

(X_U4.N16672106) 1.0000000000         (X_U4.N16672276) 1.8000000000             

(X_U4.N16672306) 1.8000000000         (X_U4.N16672528) 318.8125658E-06          

(X_U4.N16672594) 5.0000000000         (X_U4.N16672776)-18.5416956570            

(X_U4.N16672784)-8.2467323403         (X_U4.N16672968)-20.2467323400            

(X_U4.N16673112) 5.0000000000         (X_U4.N16673358) 21.31628207E-15          

(X_U4.N16673432) 1.8000000000         (X_U4.N16673492) 1.8000000000             

(X_U4.N16673790) .9996811874          (X_U4.N16698404) 5.0000000000             

(X_U4.N16970878) .5406764924          (X_U4.N17051744)-.2250913990              

(X_U4.N17051757) 0.0000000000         (X_U4.N17051771)-30.2250913990            

(X_U4.N17088411) .1275946584          (X_U4.N17110019) 5.0000000000             

(X_U4.N17110021) 5.0000000000         (X_U4.N17110038) 5.1309160299             

(X_U4.N17127259) .1309160319          (X_U4.N17153666) 4.9999999950             

(X_U4.N17167704)-18.9494310240        (X_U4.N17167706) .0020838120              

(X_U4.N17196585) 0.0000000000         (X_U4.N17198437) 5.0000000000             

(X_U4.N17201974) 5.0000000000         (X_U4.N17396123) 5.0000010655             

(X_U4.N17407797) 1.029034516E-06      (X_U4.N167201110) 305.4350694E-27         

(X_U4.N167208610) 5.0000000000        (X_U4.N167216030) 5.0000000000            

(X_U4.X_U42.YINT) 0.0000000000        (X_U4.X_U43.YINT) 5.0000000000            

(X_U4.X_U44.YINT) 5.0000000000        (X_U4.X_U54.YINT) 5.0000000000            

(X_U4.X_U61.YINT) 5.0000000000        (X_U4.X_U62.YINT) 0.0000000000            

(X_U4.DEAD_THRESH) .0022716988        (X_U4.UVLO1_DELAYED) 5.0000000000         

(X_U4.UVLO2_DELAYED) 2.317010412E-18  (X_U4.UVLO2B_DELAYED) 5.0000000000    

Resuming Simulation with the following settings
ITL4 = 1000
ABSTOL = 1.26e-010

Convergence problem in transient analysis at Time =  110.8E-06
         Time step =  1.536E-15, minimum allowable step size =  3.000E-15

  These voltages failed to converge:

    V(X_U6.11)                =  -640.6944716381mV  \  -643.1922869078mV
    V(X_U6.5)                 =  -665.1684279243mV  \  -667.6672832928mV
    V(X_U6.12)                =  -640.6944716381mV  \  -643.1922869078mV

  These supply currents failed to converge:

    I(X_U5.L2)                =   327.2306750632uA  \   328.5575045383uA

  These devices failed to converge:
    X_U6.M2   



  Last node voltages tried were:

 NODE   VOLTAGE     NODE   VOLTAGE     NODE   VOLTAGE     NODE   VOLTAGE


(   5V) 5.0000000000                  (   HO) .1264533661                       

(   LO)-20.2467319330                 (   VS) .1308511985                       

(  15V) 15.0000000000                 (  OUT)-120.2183452E-06                   

(  PWM) .1196513327                   (  VCC) 30.0000000000                     

(  VEE)-30.0000000000                 ( -15V)-15.0000000000                     

(ERROR)-.8173758744                   (N16927) .0846974123                      

(N16945) .0612015376                  (N47439)-.3622515343                      

(N48033)-.3534518988                  (N48472) 4.9977283003                     

(N48657) 21.31628207E-15              (N48936)-18.0000000000                    

(N49537)-18.0896684040                (N49581) .5407013296                      

(N49599) .5406116612                  (N49892)-23.8224518080                    

(N49937)-23.8226442260                (N50062) .0999432212                      

(N50066) .0999955601                  (N53048) 0.0000000000                     

(N53052) 0.0000000000                 (N53118) 0.0000000000                     

(N53142) 0.0000000000                 (X_U1.7) .2934431164                      

(X_U1.8)-228.3321746300               (X_U1.9)-14.2377995270                    

(X_U2.3) .0783626040                  (X_U2.4) 14.4852712750                    

(X_U2.5) 14.4438640130                (X_U2.6)-.6943275157                      

(X_U2.7)-.6779848888                  (X_U2.8)-1.2026562094                     

(X_U2.9) .0592671456                  (X_U3.3)-.3602345629                      

(X_U3.4) 14.4613142720                (X_U3.5) 14.4678210160                    

(X_U3.6)-1.1095546402                 (X_U3.7)-1.1160138511                     

(X_U3.8)-1.6292842526                 (X_U3.9)-.8197101455                      

(X_U5.4) 4.1433339414                 (X_U5.5) 29.2204083080                    

(X_U5.6) .9092587279                  (X_U6.4)-22.2882623400                    

(X_U6.5)-.6651684279                  (X_U6.6)-25.1743720490                    

(VTRIANG)-.4924040353                 (X_U1.10) .7622004734                     

(X_U1.11) .7622004734                 (X_U1.21)-.3673758744                     

(X_U1.22)-.0424040353                 (X_U2.10) 12.5700000000                   

(X_U2.11)-12.5700000000               (X_U2.14) .0729494750                     

(X_U2.15)-166.3003716E-06             (X_U2.31) .0429467932                     

(X_U2.32) 42.94679321E+03             (X_U2.33) .0755626926                     

(X_U2.34) 75.56269260E+03             (X_U2.35) .0924064692                     

(X_U2.36) .0792277337                 (X_U2.40) .0652937348                     

(X_U2.41) .0252937348                 (X_U2.42) .1052937348                     

(X_U2.45) .0612141378                 (X_U2.60)-.6197536385                     

(X_U2.61) 0.0000000000                (X_U2.62) 0.0000000000                    

(X_U2.98) 0.0000000000                (X_U3.10) 12.5700000000                   

(X_U3.11)-12.5700000000               (X_U3.14)-.3578517165                     

(X_U3.15) 338.6212217E-09             (X_U3.31)-.8174809699                     

(X_U3.32)-817.4809699E+03             (X_U3.33)-.8219334983                     

(X_U3.34)-821.9334983E+03             (X_U3.35)-.8247948836                     

(X_U3.36)-.8223875006                 (X_U3.40)-.8206397905                     

(X_U3.41)-.8606397905                 (X_U3.42)-.7806397905                     

(X_U3.45)-.8173766069                 (X_U3.60) .6139782958                     

(X_U3.61) 0.0000000000                (X_U3.62) 0.0000000000                    

(X_U3.98) 0.0000000000                (X_U5.11) 29.2204083080                   

(X_U5.12) 29.2204083080               (X_U5.22) .9099131893                     

(X_U5.33) .9931570399                 (X_U6.11)-.6406944716                     

(X_U6.12)-.6406944716                 (X_U6.22)-23.1536099870                   

(X_U6.33)-29.0138260840               (X_U4.DIS) 0.0000000000                   

(SIGNAL_IN)-.3673937389               (X_U4.DRVA) 0.0000000000                  

(X_U4.DRVB) 5.0000000000              (X_U4.NO_DT) 0.0000000000                 

(X_U4.PWMIN) 0.0000000000             (X_U4.UVLO1) 5.0000000000                 

(X_U4.UVLO2) 0.0000000000             (X_U4.INA_OK) 1.249999979E-18             

(X_U4.INB_OK) 5.0000000000            (X_U4.PWMINB) 1.0000000000                

(X_U4.UVLO2B) 5.0000000000            (X_U4.INA_INT) .1196513327                

(X_U4.INA_OKD) 1.249999979E-18        (X_U4.INA_PRE) 0.0000000000               

(X_U4.INB_OKD) 5.0000000000           (X_U4.INB_PRE) 5.0000000000               

(X_U4.VCCI_INT) 5.0000000000          (X_U4.DRVA_PASS) 0.0000000000             

(X_U4.DRVB_PASS) 5.0000000000         (X_U4.FAULT_INP) 5.0000000000             

(X_U4.N16668890) 8.5000000000         (X_U4.N16668898) 8.5000000000             

(X_U4.N16669068) 0.0000000000         (X_U4.N16669308) .1264533661              

(X_U4.N16669580) 1.249999979E-18      (X_U4.N16669674) 0.0000000000             

(X_U4.N16669834) 2.7000000000         (X_U4.N16669842) 2.5000000000             

(X_U4.N16669858) 5.0000000000         (X_U4.N16670120) 2.0004666881             

(X_U4.N16670154) 2.0000000000         (X_U4.N16670162) 5.0009266733             

(X_U4.N16670228) 5.0000000000         (X_U4.N16670408) 0.0000000000             

(X_U4.N16670672) 1.0000000000         (X_U4.N16670780) .4097604627              

(X_U4.N16670790) 0.0000000000         (X_U4.N16670816) 4.9977283003             

(X_U4.N16670888) 8.5000000000         (X_U4.N16670896) 8.0000000000             

(X_U4.N16671044) 12.0000000000        (X_U4.N16671166) 0.0000000000             

(X_U4.N16671236) 0.0000000000         (X_U4.N16671468) 5.0000000000             

(X_U4.N16671552) 1.3741969588         (X_U4.N16671580) 2.0000000000             

(X_U4.N16671640) 5.0000000000         (X_U4.N16671702) 4.9990352188             

(X_U4.N16671830) .0017671900          (X_U4.N16671850) 0.0000000000             

(X_U4.N16672106) 1.0000000000         (X_U4.N16672276) 1.8000000000             

(X_U4.N16672306) 1.8000000000         (X_U4.N16672528) 318.8119550E-06          

(X_U4.N16672594) 5.0000000000         (X_U4.N16672776)-18.5416955650            

(X_U4.N16672784)-8.2467319330         (X_U4.N16672968)-20.2467319330            

(X_U4.N16673112) 5.0000000000         (X_U4.N16673358) 21.31628207E-15          

(X_U4.N16673432) 1.8000000000         (X_U4.N16673492) 1.8000000000             

(X_U4.N16673790) .9996811880          (X_U4.N16698404) 5.0000000000             

(X_U4.N16970878) .5406116612          (X_U4.N17051744)-.2250909276              

(X_U4.N17051757) 0.0000000000         (X_U4.N17051771)-30.2250909280            

(X_U4.N17088411) .1275298428          (X_U4.N17110019) 5.0000000000             

(X_U4.N17110021) 5.0000000000         (X_U4.N17110038) 5.1308511985             

(X_U4.N17127259) .1308512006          (X_U4.N17153666) 4.9999999950             

(X_U4.N17167704)-18.9494262530        (X_U4.N17167706) .0020837832              

(X_U4.N17196585) 0.0000000000         (X_U4.N17198437) 5.0000000000             

(X_U4.N17201974) 5.0000000000         (X_U4.N17396123) 5.0000010655             

(X_U4.N17407797) 1.029029588E-06      (X_U4.N167201110) 305.4350693E-27         

(X_U4.N167208610) 5.0000000000        (X_U4.N167216030) 5.0000000000            

(X_U4.X_U42.YINT) 0.0000000000        (X_U4.X_U43.YINT) 5.0000000000            

(X_U4.X_U44.YINT) 5.0000000000        (X_U4.X_U54.YINT) 5.0000000000            

(X_U4.X_U61.YINT) 5.0000000000        (X_U4.X_U62.YINT) 0.0000000000            

(X_U4.DEAD_THRESH) .0022716997        (X_U4.UVLO1_DELAYED) 5.0000000000         

(X_U4.UVLO2_DELAYED) 2.317010411E-18  (X_U4.UVLO2B_DELAYED) 5.0000000000    

Resuming Simulation with the following settings
RELTOL = 0.0086
ABSTOL = 1.58e-008

Convergence problem in transient analysis at Time =  110.8E-06
         Time step =  1.536E-15, minimum allowable step size =  3.000E-15



  Last node voltages tried were:

 NODE   VOLTAGE     NODE   VOLTAGE     NODE   VOLTAGE     NODE   VOLTAGE


(   5V) 5.0000000000                  (   HO) .0036779397                       

(   LO)-20.2459466320                 (   VS) .0080306108                       

(  15V) 15.0000000000                 (  OUT)-120.1981235E-06                   

(  PWM) .1196431442                   (  VCC) 30.0000000000                     

(  VEE)-30.0000000000                 ( -15V)-15.0000000000                     

(ERROR)-.8174194428                   (N16927) .0834214301                      

(N16945) .0615247057                  (N47439)-.3622523456                      

(N48033)-.3534474623                  (N48472) 4.9977283003                     

(N48657) 21.31628207E-15              (N48936)-18.0000000000                    

(N49537)-18.0888380320                (N49581) .4178801144                      

(N49599) .4177912763                  (N49892)-23.8205077870                    

(N49937)-23.8207064060                (N50062)-.0226677250                      

(N50066)-.0225871716                  (N53048) 0.0000000000                     

(N53052) 0.0000000000                 (N53118) 0.0000000000                     

(N53142) 0.0000000000                 (X_U1.7) .2933995483                      

(X_U1.8)-228.3319650900               (X_U1.9)-14.2377994030                    

(X_U2.3) .0761922158                  (X_U2.4) 14.4849052390                    

(X_U2.5) 14.4442300490                (X_U2.6)-.6940646894                      

(X_U2.7)-.6800966811                  (X_U2.8)-1.2035806924                     

(X_U2.9) .0595651803                  (X_U3.3)-.3602355635                      

(X_U3.4) 14.4613115380                (X_U3.5) 14.4678237490                    

(X_U3.6)-1.1095503327                 (X_U3.7)-1.1160147214                     

(X_U3.8)-1.6292825340                 (X_U3.9)-.8197559410                      

(X_U5.4) 4.0784903509                 (X_U5.5) 29.1599221810                    

(X_U5.6) .8441707480                  (X_U6.4)-22.2376857170                    

(X_U6.5)-.8377115515                  (X_U6.6)-25.1113003100                    

(VTRIANG)-.4923724867                 (X_U1.10) .7622005973                     

(X_U1.11) .7622005973                 (X_U1.21)-.3674194428                     

(X_U1.22)-.0423724867                 (X_U2.10) 12.5700000000                   

(X_U2.11)-12.5700000000               (X_U2.14) .0724730679                     

(X_U2.15)-184.1460173E-06             (X_U2.31) .0432697385                     

(X_U2.32) 43.26973852E+03             (X_U2.33) .0758358543                     

(X_U2.34) 75.83585428E+03             (X_U2.35) .0920670825                     

(X_U2.36) .0794828760                 (X_U2.40) .0656600060                     

(X_U2.41) .0256600060                 (X_U2.42) .1056600060                     

(X_U2.45) .0615368903                 (X_U2.60)-.6200280945                     

(X_U2.61) 0.0000000000                (X_U2.62) 0.0000000000                    

(X_U2.98) 0.0000000000                (X_U3.10) 12.5700000000                   

(X_U3.11)-12.5700000000               (X_U3.14)-.3578499040                     

(X_U3.15) 334.8451134E-09             (X_U3.31)-.8175251135                     

(X_U3.32)-817.5251135E+03             (X_U3.33)-.8219809430                     

(X_U3.34)-821.9809430E+03             (X_U3.35)-.8248053303                     

(X_U3.36)-.8224353641                 (X_U3.40)-.8206859139                     

(X_U3.41)-.8606859139                 (X_U3.42)-.7806859139                     

(X_U3.45)-.8174201718                 (X_U3.60) .6139985677                     

(X_U3.61) 0.0000000000                (X_U3.62) 0.0000000000                    

(X_U3.98) 0.0000000000                (X_U5.11) 29.1599221810                   

(X_U5.12) 29.1599221810               (X_U5.22) .8389575745                     

(X_U5.33) .9276805215                 (X_U6.11)-.8129057711                     

(X_U6.12)-.8129057711                 (X_U6.22)-23.0954073910                   

(X_U6.33)-28.9551807830               (X_U4.DIS) 0.0000000000                   

(SIGNAL_IN)-.3673945953               (X_U4.DRVA) 0.0000000000                  

(X_U4.DRVB) 5.0000000000              (X_U4.NO_DT) 0.0000000000                 

(X_U4.PWMIN) 0.0000000000             (X_U4.UVLO1) 5.0000000000                 

(X_U4.UVLO2) 0.0000000000             (X_U4.INA_OK) 1.249999979E-18             

(X_U4.INB_OK) 5.0000000000            (X_U4.PWMINB) 1.0000000000                

(X_U4.UVLO2B) 5.0000000000            (X_U4.INA_INT) .1196431442                

(X_U4.INA_OKD) 1.249999979E-18        (X_U4.INA_PRE) 0.0000000000               

(X_U4.INB_OKD) 5.0000000000           (X_U4.INB_PRE) 5.0000000000               

(X_U4.VCCI_INT) 5.0000000000          (X_U4.DRVA_PASS) 0.0000000000             

(X_U4.DRVB_PASS) 5.0000000000         (X_U4.FAULT_INP) 5.0000000000             

(X_U4.N16668890) 8.5000000000         (X_U4.N16668898) 8.5000000000             

(X_U4.N16669068) 0.0000000000         (X_U4.N16669308) .0036779397              

(X_U4.N16669580) 1.249999979E-18      (X_U4.N16669674) 0.0000000000             

(X_U4.N16669834) 2.7000000000         (X_U4.N16669842) 2.5000000000             

(X_U4.N16669858) 5.0000000000         (X_U4.N16670120) 2.0004666700             

(X_U4.N16670154) 2.0000000000         (X_U4.N16670162) 5.0009218679             

(X_U4.N16670228) 5.0000000000         (X_U4.N16670408) 0.0000000000             

(X_U4.N16670672) 1.0000000000         (X_U4.N16670780) .4097606656              

(X_U4.N16670790) 0.0000000000         (X_U4.N16670816) 4.9977283003             

(X_U4.N16670888) 8.5000000000         (X_U4.N16670896) 8.0000000000             

(X_U4.N16671044) 12.0000000000        (X_U4.N16671166) 0.0000000000             

(X_U4.N16671236) 0.0000000000         (X_U4.N16671468) 5.0000000000             

(X_U4.N16671552) 1.3753899748         (X_U4.N16671580) 2.0000000000             

(X_U4.N16671640) 5.0000000000         (X_U4.N16671702) 4.9990602225             

(X_U4.N16671830) .0017580260          (X_U4.N16671850) 0.0000000000             

(X_U4.N16672106) 1.0000000000         (X_U4.N16672276) 1.8000000000             

(X_U4.N16672306) 1.8000000000         (X_U4.N16672528) 317.6537816E-06          

(X_U4.N16672594) 5.0000000000         (X_U4.N16672776)-18.5415174170            

(X_U4.N16672784)-8.2459466315         (X_U4.N16672968)-20.2459466320            

(X_U4.N16673112) 5.0000000000         (X_U4.N16673358) 21.31628207E-15          

(X_U4.N16673432) 1.8000000000         (X_U4.N16673492) 1.8000000000             

(X_U4.N16673790) .9996823462          (X_U4.N16698404) 5.0000000000             

(X_U4.N16970878) .4177912763          (X_U4.N17051744)-.2241971781              

(X_U4.N17051757) 0.0000000000         (X_U4.N17051771)-30.2241971780            

(X_U4.N17088411) .0047433593          (X_U4.N17110019) 5.0000000000             

(X_U4.N17110021) 5.0000000000         (X_U4.N17110038) 5.0080306108             

(X_U4.N17127259) .0080306128          (X_U4.N17153666) 4.9999999950             

(X_U4.N17167704)-18.9404064760        (X_U4.N17167706) .0020297788              

(X_U4.N17196585) 0.0000000000         (X_U4.N17198437) 5.0000000000             

(X_U4.N17201974) 5.0000000000         (X_U4.N17396123) 5.0000010558             

(X_U4.N17407797) 1.019709440E-06      (X_U4.N167201110) 305.4349582E-27         

(X_U4.N167208610) 5.0000000000        (X_U4.N167216030) 5.0000000000            

(X_U4.X_U42.YINT) 0.0000000000        (X_U4.X_U43.YINT) 5.0000000000            

(X_U4.X_U44.YINT) 5.0000000000        (X_U4.X_U54.YINT) 5.0000000000            

(X_U4.X_U61.YINT) 5.0000000000        (X_U4.X_U62.YINT) 0.0000000000            

(X_U4.DEAD_THRESH) .0022716997        (X_U4.UVLO1_DELAYED) 5.0000000000         

(X_U4.UVLO2_DELAYED) 2.317009568E-18  (X_U4.UVLO2B_DELAYED) 5.0000000000    

Resuming Simulation with the following settings
ITL4 = 1000

Convergence problem in transient analysis at Time =  110.8E-06
         Time step =  1.536E-15, minimum allowable step size =  3.000E-15

  These voltages failed to converge:

    V(HO)                     =    3.61394755468mV  \    3.67050020279mV
    V(X_U4.N16669308)         =    3.61394755468mV  \    3.67050020279mV
    V(X_U4.N17088411)         =    4.67936055960mV  \    4.73591905050mV

  These devices failed to converge:
    X_U6.M2   



  Last node voltages tried were:

 NODE   VOLTAGE     NODE   VOLTAGE     NODE   VOLTAGE     NODE   VOLTAGE


(   5V) 5.0000000000                  (   HO) .0036139476                       

(   LO)-20.2459462130                 (   VS) .0079665918                       

(  15V) 15.0000000000                 (  OUT)-120.1981129E-06                   

(  PWM) .1196431399                   (  VCC) 30.0000000000                     

(  VEE)-30.0000000000                 ( -15V)-15.0000000000                     

(ERROR)-.8174194657                   (N16927) .0834207357                      

(N16945) .0615248766                  (N47439)-.3622523461                      

(N48033)-.3534474600                  (N48472) 4.9977283003                     

(N48657) 20.42810365E-15              (N48936)-18.0000000000                    

(N49537)-18.0888376060                (N49581) .4178160950                      

(N49599) .4177272574                  (N49892)-23.8205067490                    

(N49937)-23.8207053710                (N50062)-.0227316142                      

(N50066)-.0226510455                  (N53048) 0.0000000000                     

(N53052) 0.0000000000                 (N53118) 0.0000000000                     

(N53142) 0.0000000000                 (X_U1.7) .2933995253                      

(X_U1.8)-228.3319650400               (X_U1.9)-14.2377994030                    

(X_U2.3) .0761911121                  (X_U2.4) 14.4849050400                    

(X_U2.5) 14.4442302480                (X_U2.6)-.6940645493                      

(X_U2.7)-.6800977549                  (X_U2.8)-1.2035811592                     

(X_U2.9) .0595653357                  (X_U3.3)-.3602355641                      

(X_U3.4) 14.4613115370                (X_U3.5) 14.4678237510                    

(X_U3.6)-1.1095503304                 (X_U3.7)-1.1160147219                     

(X_U3.8)-1.6292825330                 (X_U3.9)-.8197559651                      

(X_U5.4) 4.0834765914                 (X_U5.5) 29.1649111390                    

(X_U5.6) .8491568360                  (X_U6.4)-22.2401539200                    

(X_U6.5)-.8402850162                  (X_U6.6)-25.1137619160                    

(VTRIANG)-.4923724757                 (X_U1.10) .7622005973                     

(X_U1.11) .7622005973                 (X_U1.21)-.3674194657                     

(X_U1.22)-.0423724757                 (X_U2.10) 12.5700000000                   

(X_U2.11)-12.5700000000               (X_U2.14) .0724728061                     

(X_U2.15)-184.1541851E-06             (X_U2.31) .0432699084                     

(X_U2.32) 43.26990838E+03             (X_U2.33) .0758359954                     

(X_U2.34) 75.83599538E+03             (X_U2.35) .0920653720                     

(X_U2.36) .0794830072                 (X_U2.40) .0656601980                     

(X_U2.41) .0256601980                 (X_U2.42) .1056601980                     

(X_U2.45) .0615370598                 (X_U2.60)-.6200282353                     

(X_U2.61) 0.0000000000                (X_U2.62) 0.0000000000                    

(X_U2.98) 0.0000000000                (X_U3.10) 12.5700000000                   

(X_U3.11)-12.5700000000               (X_U3.14)-.3578499030                     

(X_U3.15) 334.8433356E-09             (X_U3.31)-.8175251368                     

(X_U3.32)-817.5251368E+03             (X_U3.33)-.8219809681                     

(X_U3.34)-821.9809681E+03             (X_U3.35)-.8248520097                     

(X_U3.36)-.8224353894                 (X_U3.40)-.8206859382                     

(X_U3.41)-.8606859382                 (X_U3.42)-.7806859382                     

(X_U3.45)-.8174201948                 (X_U3.60) .6139985784                     

(X_U3.61) 0.0000000000                (X_U3.62) 0.0000000000                    

(X_U3.98) 0.0000000000                (X_U5.11) 29.1649111390                   

(X_U5.12) 29.1649111390               (X_U5.22) .8439404678                     

(X_U5.33) .9326689378                 (X_U6.11)-.8154915957                     

(X_U6.12)-.8154915957                 (X_U6.22)-23.0978716590                   

(X_U6.33)-28.9576520920               (X_U4.DIS) 0.0000000000                   

(SIGNAL_IN)-.3673945956               (X_U4.DRVA) 0.0000000000                  

(X_U4.DRVB) 5.0000000000              (X_U4.NO_DT) 0.0000000000                 

(X_U4.PWMIN) 0.0000000000             (X_U4.UVLO1) 5.0000000000                 

(X_U4.UVLO2) 0.0000000000             (X_U4.INA_OK) 1.249999979E-18             

(X_U4.INB_OK) 5.0000000000            (X_U4.PWMINB) 1.0000000000                

(X_U4.UVLO2B) 5.0000000000            (X_U4.INA_INT) .1196431399                

(X_U4.INA_OKD) 1.249999979E-18        (X_U4.INA_PRE) 0.0000000000               

(X_U4.INB_OKD) 5.0000000000           (X_U4.INB_PRE) 5.0000000000               

(X_U4.VCCI_INT) 5.0000000000          (X_U4.DRVA_PASS) 0.0000000000             

(X_U4.DRVB_PASS) 5.0000000000         (X_U4.FAULT_INP) 5.0000000000             

(X_U4.N16668890) 8.5000000000         (X_U4.N16668898) 8.5000000000             

(X_U4.N16669068) 0.0000000000         (X_U4.N16669308) .0036139476              

(X_U4.N16669580) 1.249999979E-18      (X_U4.N16669674) 0.0000000000             

(X_U4.N16669834) 2.7000000000         (X_U4.N16669842) 2.5000000000             

(X_U4.N16669858) 5.0000000000         (X_U4.N16670120) 2.0004666700             

(X_U4.N16670154) 2.0000000000         (X_U4.N16670162) 5.0009218654             

(X_U4.N16670228) 5.0000000000         (X_U4.N16670408) 0.0000000000             

(X_U4.N16670672) 1.0000000000         (X_U4.N16670780) .4097606657              

(X_U4.N16670790) 0.0000000000         (X_U4.N16670816) 4.9977283004             

(X_U4.N16670888) 8.5000000000         (X_U4.N16670896) 8.0000000000             

(X_U4.N16671044) 12.0000000000        (X_U4.N16671166) 0.0000000000             

(X_U4.N16671236) 0.0000000000         (X_U4.N16671468) 5.0000000000             

(X_U4.N16671552) 1.3753906028         (X_U4.N16671580) 2.0000000000             

(X_U4.N16671640) 5.0000000000         (X_U4.N16671702) 4.9990602355             

(X_U4.N16671830) .0017580212          (X_U4.N16671850) 0.0000000000             

(X_U4.N16672106) 1.0000000000         (X_U4.N16672276) 1.8000000000             

(X_U4.N16672306) 1.8000000000         (X_U4.N16672528) 317.6531730E-06          

(X_U4.N16672594) 5.0000000000         (X_U4.N16672776)-18.5415173220            

(X_U4.N16672784)-8.2459462128         (X_U4.N16672968)-20.2459462130            

(X_U4.N16673112) 5.0000000000         (X_U4.N16673358) 20.42810365E-15          

(X_U4.N16673432) 1.8000000000         (X_U4.N16673492) 1.8000000000             

(X_U4.N16673790) .9996823468          (X_U4.N16698404) 5.0000000000             

(X_U4.N16970878) .4177272574          (X_U4.N17051744)-.2241967086              

(X_U4.N17051757) 0.0000000000         (X_U4.N17051771)-30.2241967090            

(X_U4.N17088411) .0046793606          (X_U4.N17110019) 5.0000000000             

(X_U4.N17110021) 5.0000000000         (X_U4.N17110038) 5.0079665918             

(X_U4.N17127259) .0079665938          (X_U4.N17153666) 4.9999999950             

(X_U4.N17167704)-18.9404017510        (X_U4.N17167706) .0020297508              

(X_U4.N17196585) 0.0000000000         (X_U4.N17198437) 5.0000000000             

(X_U4.N17201974) 5.0000000000         (X_U4.N17396123) 5.0000010558             

(X_U4.N17407797) 1.019704556E-06      (X_U4.N167201110) 305.4349581E-27         

(X_U4.N167208610) 5.0000000000        (X_U4.N167216030) 5.0000000000            

(X_U4.X_U42.YINT) 0.0000000000        (X_U4.X_U43.YINT) 5.0000000000            

(X_U4.X_U44.YINT) 5.0000000000        (X_U4.X_U54.YINT) 5.0000000000            

(X_U4.X_U61.YINT) 5.0000000000        (X_U4.X_U62.YINT) 0.0000000000            

(X_U4.DEAD_THRESH) .0022716996        (X_U4.UVLO1_DELAYED) 5.0000000000         

(X_U4.UVLO2_DELAYED) 2.317009568E-18  (X_U4.UVLO2B_DELAYED) 5.0000000000    

Resuming Simulation with the following settings
RELTOL = 0.05
ABSTOL = 1e-006


**** 11/12/20 00:27:05 ****** PSpice 17.2.0 (March 2016) ****** ID# 0 ********

 ** Profile: "Esquematico-bias"  [ C:\Users\Emanuel\Desktop\Amplificador\amplificador clase d-pspicefiles\esquematico\bias.sim ] 


 ****     FOURIER ANALYSIS                 TEMPERATURE =   27.000 DEG C


******************************************************************************



FOURIER COMPONENTS OF TRANSIENT RESPONSE V(OUT)



 DC COMPONENT =   1.2015302225E-01

 HARMONIC   FREQUENCY             FOURIER             NORMALIZED             PHASE             NORMALIZED
    NO         (HZ)              COMPONENT             COMPONENT             (DEG)             PHASE (DEG)

     1    5.0000000000E+03   2.1923945744E+01   1.0000000000E+00  -7.6024727427E+00   0.0000000000E+00
     2    1.0000000000E+04   5.5334571806E-03   2.5239330754E-04   7.1721262514E+01   8.6926208000E+01
     3    1.5000000000E+04   1.0210697945E-02   4.6573267716E-04   1.4204084287E+02   1.6484826110E+02
     4    2.0000000000E+04   2.3991920051E-02   1.0943249145E-03   6.2914117408E+01   9.3324008379E+01
     5    2.5000000000E+04   1.6849526513E-02   7.6854443584E-04   1.1964658333E+02   1.5765894705E+02


     TOTAL HARMONIC DISTORTION =   1.4383382344E-01 PERCENT


          JOB CONCLUDED
 AutoConverge Simulator Options
 ITL1 = 150
 ITL2 = 20
 ITL4 = 100
 RELTOL = 0.05
 ABSTOL = 1e-006
 VNTOL = 1e-006
 PIVTOL = 1e-013

**** 11/12/20 00:27:05 ****** PSpice 17.2.0 (March 2016) ****** ID# 0 ********

 ** Profile: "Esquematico-bias"  [ C:\Users\Emanuel\Desktop\Amplificador\amplificador clase d-pspicefiles\esquematico\bias.sim ] 


 ****     JOB STATISTICS SUMMARY


******************************************************************************



  Total job time (using Solver 1)   =      173.86
