
**** 07/29/21 01:27:39 ****** PSpice 17.2.0 (March 2016) ****** ID# 0 ********

 ** Profile: "Esquematico-Transient"  [ C:\Users\Emanuel\Desktop\DCE-Amplificador-Clase-D\Amplificador\amplificador clase d-pspicefil


 ****     CIRCUIT DESCRIPTION


******************************************************************************




** Creating circuit file "Transient.cir" 
** WARNING: THIS AUTOMATICALLY GENERATED FILE MAY BE OVERWRITTEN BY SUBSEQUENT SIMULATIONS

*Libraries: 
* Profile Libraries :
* Local Libraries :
.LIB "../../../libraries/phb27nq10t/phb27nq10t.lib" 
.LIB "../../../libraries/ucc20520_pspice_trans/ucc20520_trans.lib" 
* From [PSPICE NETLIST] section of C:\Users\Emanuel\AppData\Roaming\SPB_Data\cdssetup\OrCAD_PSpice\17.2.0\PSpice.ini file:
.lib "nom.lib" 

*Analysis directives: 
.TRAN  0 10ms 0 
.OPTIONS ADVCONV
.OPTIONS SPEED_LEVEL= 0
.AUTOCONVERGE ITL1=1000 ITL2=1000 ITL4=1000 RELTOL=0.05 ABSTOL=1.0E-6 VNTOL=.001 PIVTOL=1.0E-10 
.PROBE64 V(alias(*)) I(alias(*)) W(alias(*)) D(alias(*)) NOISE(alias(*)) 
.INC "..\Esquematico.net" 



**** INCLUDING Esquematico.net ****
* source AMPLIFICADOR CLASE D
X_U1         ERROR VTRIANG 15V -15V PWM 0 LM311
R_R1         PWM 5V  1k TC=0,0 
V_V1         VTRIANG 0  
+PULSE -1.5 1.5 1p 1.65u 1.65u 1p 3.3u
R_R3         0 N16927  1k TC=0,0 
R_R2         N16927 VS  19k TC=0,0 
X_U2         N16927 N16945 15V -15V N16945 AD817A/AD
R_R18         SIGNAL_IN N47439  1k TC=0,0 
C_C17         0 N47439  1n  TC=0,0 
R_R19         0 N47439  100k TC=0,0 
X_U3         N47439 N48033 15V -15V ERROR AD817A/AD
R_R20         N48033 N16945  1k TC=0,0 
R_R21         N48033 ERROR  100k TC=0,0 
C_C18         ERROR N48033  1n  TC=0,0 
X_U4         N48657 N48472 0 N53048 N53052 N53118 N53142 HO LO PWM 5V 5V N49709
+  N48936 VS VEE UCC20520_TRANS
R_R22         0 N48472  2.2k TC=0,0 
C_C19         0 N48472  2.2n  TC=0,0 
R_R23         0 N48657  20 TC=0,0 
C_C20         N48657 5V  1u  TC=0,0 
V_V8         N48936 VEE 12
V_V6         VCC 0 30
V_V5         5V 0 5
V_V3         15V 0 15
V_V4         0 -15V 15
V_V7         0 VEE 30
R_R24         N48936 N49537  10 TC=0,0 
C_C21         VS N49709  100n  TC=0,0 
R_R25         N49892 LO  3.3 TC=0,0 
R_R26         N49892 N49937  1.2 TC=0,0 
R_R27         N50090 N50062  1.2 TC=0,0 
R_R28         N50090 HO  3.3 TC=0,0 
C_C22         VEE N49892  1n  TC=0,0 
C_C23         VS N50090  1n  TC=0,0 
C_C24         0 OUT  330n  TC=0,0 
R_R29         0 OUT  8 TC=0,0 
L_L1         VS OUT  33u  
R_R30         N53048 0  2.2k TC=0,0 
R_R31         N53052 0  2.2k TC=0,0 
R_R33         N53142 0  2.2k TC=0,0 
R_R32         N53118 0  2.2k TC=0,0 
C_C25         VS N49709  330n  TC=0,0 
C_C26         VEE N48936  100n  TC=0,0 
C_C27         VEE N48936  10u  TC=0,0 
C_C28         0 VCC  3300u  TC=0,0 
C_C29         VEE 0  3300u  TC=0,0 
V_V9         FEED_ON_SIGNAL 0  
+PULSE 0 1 20m 1p 1p 20m 20m
D_D7         N50062 HO MURS320T3G 
D_D8         N49937 LO MURS320T3G 
D_D9         N49537 N49709 MURS320T3G 
D_D10         VEE VS MURS320T3G 
D_D11         VS VCC MURS320T3G 
X_U5         VCC N50090 VS PHB27NQ10T
X_U6         VS N49892 VEE PHB27NQ10T
V_V10         SIGNAL_IN 0  AC 0
+SIN 0 1.1 1k 0 0 0
.NODESET         V([VS ])=0
.NODESET         V([OUT ])=0
.PARAM  r_paralela_diodo=500meg r_paralela_mosfet=500meg

**** RESUMING Transient.cir ****
.END

**** 07/29/21 01:27:39 ****** PSpice 17.2.0 (March 2016) ****** ID# 0 ********

 ** Profile: "Esquematico-Transient"  [ C:\Users\Emanuel\Desktop\DCE-Amplificador-Clase-D\Amplificador\amplificador clase d-pspicefil


 ****     Diode MODEL PARAMETERS


******************************************************************************




               MURS320T3G      X_U1.dx         X_U2.DX         X_U3.DX         
          IS   23.789000E-09  800.000000E-18   10.000000E-15   10.000000E-15 
           N    1.6119                                                       
         ISR   19.406000E-09                                                 
          NR    3.5766                                                       
         IKF   61.67                                                         
          BV  200                                                            
         IBV  800.000000E-09                                                 
          RS    8.451400E-03                                                 
          TT   35.000000E-09                                                 
         CJO  137.580000E-12                                                 
          VJ    1.4981                                                       
           M     .49862                                                      
          EG    1.0274                                                       
         XTI    5.000000E-09                                                 


               X_U5.Dbody      X_U6.Dbody      X_U4.X_U48.dd   X_U4.X_U40.dd   
          IS   10.000000E-15   10.000000E-15   10.000000E-15   10.000000E-15 
           N     .85             .85            1.000000E-03    1.000000E-03 
         IKF    1.000000E+03    1.000000E+03                                 
          BV  100             100                                            
         IBV  250.000000E-06  250.000000E-06                                 
          RS    8.300000E-03    8.300000E-03                                 
          TT   60.000000E-09   60.000000E-09                                 
          VJ     .4              .4                                          


               X_U4.X_U47.dd   X_U4.X_U57.dd   X_U4.X_U55.dd   X_U4.X_U33.dd   
          IS   10.000000E-15   10.000000E-15   10.000000E-15   10.000000E-15 
           N    1.000000E-03    1.000000E-03    1.000000E-03    1.000000E-03 


               X_U4.X_U37.dd   X_U4.X_U38.dd   X_U4.X_U35.dd   X_U4.X_U56.dd   
          IS   10.000000E-15   10.000000E-15   10.000000E-15   10.000000E-15 
           N    1.000000E-03    1.000000E-03    1.000000E-03    1.000000E-03 


               X_U4.X_U59.dd   X_U4.X_U60.dd   X_U4.X_U39.dd   
          IS   10.000000E-15   10.000000E-15   10.000000E-15 
           N    1.000000E-03    1.000000E-03    1.000000E-03 


**** 07/29/21 01:27:39 ****** PSpice 17.2.0 (March 2016) ****** ID# 0 ********

 ** Profile: "Esquematico-Transient"  [ C:\Users\Emanuel\Desktop\DCE-Amplificador-Clase-D\Amplificador\amplificador clase d-pspicefil


 ****     BJT MODEL PARAMETERS


******************************************************************************




               X_U1.qin        X_U1.qmi        X_U1.qmo        X_U1.qoc        
               PNP             NPN             NPN             NPN             
       LEVEL    1               1               1               1            
          IS  800.000000E-18  800.000000E-18  800.000000E-18  800.000000E-18 
          BF  500               1.002000E+03    1.000000E+03  206.900000E+03 
          NF    1               1               1               1            
          BR    1               1               1               1            
          NR    1               1               1               1            
         ISS    0               0               0               0            
          RE    0               0               0               0            
          RC    0               0               0               0            
         CJE    0               0               0               0            
         VJE     .75             .75             .75             .75         
         CJC    0               0               1.000000E-15    1.000000E-15 
         VJC     .75             .75             .75             .75         
         MJC     .33             .33             .33             .33         
        XCJC    1               1               1               1            
         CJS    0               0               0               0            
         VJS     .75             .75             .75             .75         
          TF                                                    7.855000E-12 
          TR                                  124.200000E-09   83.830000E-09 
          KF    0               0               0               0            
          AF    1               1               1               1            
          CN    2.2             2.42            2.42            2.42         
           D     .52             .87             .87             .87         


               X_U2.QN         X_U3.QN         
               NPN             NPN             
       LEVEL    1               1            
          IS  100.000000E-18  100.000000E-18 
          BF   75.758          75.758        
          NF    1               1            
          BR    1               1            
          NR    1               1            
         ISS    0               0            
          RE    0               0            
          RC    0               0            
         CJE    0               0            
         VJE     .75             .75         
         CJC    0               0            
         VJC     .75             .75         
         MJC     .33             .33         
        XCJC    1               1            
         CJS    0               0            
         VJS     .75             .75         
          KF    0               0            
          AF    1               1            
          CN    2.42            2.42         
           D     .87             .87         


**** 07/29/21 01:27:39 ****** PSpice 17.2.0 (March 2016) ****** ID# 0 ********

 ** Profile: "Esquematico-Transient"  [ C:\Users\Emanuel\Desktop\DCE-Amplificador-Clase-D\Amplificador\amplificador clase d-pspicefil


 ****     MOSFET MODEL PARAMETERS


******************************************************************************




               X_U5.MOST1      X_U5.MOST2      X_U6.MOST1      X_U6.MOST2      
               NMOS            NMOS            NMOS            NMOS            
       LEVEL    3               3               3               3            
           L  300.000000E-09  300.000000E-09  300.000000E-09  300.000000E-09 
           W     .1              .1              .1              .1          
         VTO    3.73           -2.7             3.73           -2.7          
          KP   40.800000E-06   40.800000E-06   40.800000E-06   40.800000E-06 
       GAMMA    0               0               0               0            
         PHI     .6              .6              .6              .6          
      LAMBDA    0               0               0               0            
          RD                    1.000000E+03                    1.000000E+03 
          RS                    1.000000E+03                    1.000000E+03 
          IS    0               0               0               0            
          JS    0               0               0               0            
          PB     .8              .8              .8              .8          
        PBSW     .8              .8              .8              .8          
          CJ    0               0               0               0            
        CJSW    0               0               0               0            
        CGSO    0               0               0               0            
        CGDO    0               0               0               0            
        CGBO    0               0               0               0            
         NFS    1.100000E+12                    1.100000E+12                 
         TOX  100.000000E-09  100.000000E-09  100.000000E-09  100.000000E-09 
          XJ  500.000000E-09  500.000000E-09  500.000000E-09  500.000000E-09 
          UO  650             650             650             650            
       UCRIT   10.000000E+03   10.000000E+03   10.000000E+03   10.000000E+03 
       DELTA     .1              .1              .1              .1          
         ETA  100.000000E-06  100.000000E-06  100.000000E-06  100.000000E-06 
       KAPPA     .1              .1              .1              .1          
      DIOMOD    1               1               1               1            
         VFB    0               0               0               0            
        LETA    0               0               0               0            
        WETA    0               0               0               0            
          U0    0               0               0               0            
        TEMP    0               0               0               0            
         VDD    5               5               5               5            
       XPART    0               0               0               0            


               X_U4.X_M13._mod X_U4.X_M15._mod X_U4.X_M14._mod X_U4.X_M12._mod 
               NMOS            NMOS            NMOS            NMOS            
       LEVEL    1               1               1               1            
           L   10.000000E-09   10.000000E-09   10.000000E-09   10.000000E-09 
           W    2.4             2.4              .285            .285        
         VTO    0               0               0               0            
          KP    2.000000E-09    2.000000E-09    2.000000E-09    2.000000E-09 
       GAMMA    0               0               0               0            
         PHI     .6              .6              .6              .6          
      LAMBDA    0               0               0               0            
          IS   10.000000E-15   10.000000E-15   10.000000E-15   10.000000E-15 
          JS    0               0               0               0            
           N    2.5             2.5             2.5             2.5          
          PB     .8              .8              .8              .8          
        PBSW     .8              .8              .8              .8          
          CJ    0               0               0               0            
        CJSW    0               0               0               0            
        CGSO    0               0               0               0            
        CGDO    0               0               0               0            
        CGBO    0               0               0               0            
         TOX    0               0               0               0            
          XJ    0               0               0               0            
       UCRIT   10.000000E+03   10.000000E+03   10.000000E+03   10.000000E+03 
      DIOMOD    1               1               1               1            
         VFB    0               0               0               0            
        LETA    0               0               0               0            
        WETA    0               0               0               0            
          U0    0               0               0               0            
        TEMP    0               0               0               0            
         VDD    5               5               5               5            
       XPART    0               0               0               0            


**** 07/29/21 01:27:39 ****** PSpice 17.2.0 (March 2016) ****** ID# 0 ********

 ** Profile: "Esquematico-Transient"  [ C:\Users\Emanuel\Desktop\DCE-Amplificador-Clase-D\Amplificador\amplificador clase d-pspicefil


 ****     Resistor MODEL PARAMETERS


******************************************************************************




               X_U5.Rtemp      X_U6.Rtemp      
           R    1               1            
         TC1    6.810000E-03    6.810000E-03 
         TC2   28.600000E-06   28.600000E-06 


**** 07/29/21 01:27:39 ****** PSpice 17.2.0 (March 2016) ****** ID# 0 ********

 ** Profile: "Esquematico-Transient"  [ C:\Users\Emanuel\Desktop\DCE-Amplificador-Clase-D\Amplificador\amplificador clase d-pspicefil


 ****     Voltage Controlled Switch MODEL PARAMETERS


******************************************************************************




               X_U4.X_S1._S1   X_U4.X_S6._S6   X_U4.X_S3._S3   X_U4.X_S4._S4   
         RON     .01            5.000000E-03   25               5.000000E-03 
        ROFF    1.000000E+09    1.000000E+06    1.000000E+06    1.000000E+06 
         VON    4               4.5             4.5             4.5          
        VOFF    1                .5              .5              .5          


               X_U4.X_S5._S5   X_U4.X_S2._S2   
         RON   25                .01         
        ROFF    1.000000E+06    1.000000E+09 
         VON    4.5             4            
        VOFF     .5             1            


**** 07/29/21 01:27:39 ****** PSpice 17.2.0 (March 2016) ****** ID# 0 ********

 ** Profile: "Esquematico-Transient"  [ C:\Users\Emanuel\Desktop\DCE-Amplificador-Clase-D\Amplificador\amplificador clase d-pspicefil


 ****     INITIAL TRANSIENT SOLUTION       TEMPERATURE =   27.000 DEG C


******************************************************************************



 NODE   VOLTAGE     NODE   VOLTAGE     NODE   VOLTAGE     NODE   VOLTAGE


(   5V)    5.0000  (   HO)-665.3E-06  (   LO)  -30.0000  (   VS)-3.313E-06      

(  15V)   15.0000  (  OUT)-3.313E-06  (  PWM)    4.9751  (  VCC)   30.0000      

(  VEE)  -30.0000  ( -15V)  -15.0000  (ERROR)     .6153  (N16927)    -.0061     

(N16945)    -.0041 (N47439)    -.0064 (N48033)    -.0045 (N48472)    4.9977     

(N48657)    0.0000 (N48936)  -18.0000 (N49537)  -18.0000 (N49709)    -.0013     

(N49892)  -30.0000 (N49937)  -30.0000 (N50062)-665.3E-06 (N50090)-665.3E-06     

(N53048)    0.0000 (N53052)    0.0000 (N53118)    0.0000 (N53142)    0.0000     

(X_U1.7)    -.3892 (X_U1.8)  -14.3500 (X_U1.9)  -14.9820 (X_U2.3)    -.0041     

(X_U2.4)   14.4650 (X_U2.5)   14.4650 (X_U2.6)    -.7600 (X_U2.7)    -.7600     

(X_U2.8)   -1.2765 (X_U2.9)    -.0040 (X_U3.3)    -.0044 (X_U3.4)   14.4650     

(X_U3.5)   14.4640 (X_U3.6)    -.7604 (X_U3.7)    -.7603 (X_U3.8)   -1.2769     

(X_U3.9)     .6154 (VTRIANG)   -1.5000                   (X_U1.10)     .0179    

(X_U1.11)     .0179                   (X_U1.21)    1.0653                       

(X_U1.22)   -1.0500                   (X_U2.10)   12.5700                       

(X_U2.11)  -12.5700                   (X_U2.14)    -.0051                       

(X_U2.15)-5.093E-09                   (X_U2.31)    -.0040                       

(X_U2.32)-4036.4000                   (X_U2.33)    -.0040                       

(X_U2.34)-4036.4000                   (X_U2.35)    -.0040                       

(X_U2.36)    -.0040                   (X_U2.40)    -.0040                       

(X_U2.41)    -.0440                   (X_U2.42)     .0360                       

(X_U2.45)    -.0041                   (X_U2.60)    -.5089                       

(X_U2.61)    0.0000                   (X_U2.62)    0.0000                       

(X_U2.98)    0.0000                   (X_U3.10)   12.5700                       

(X_U3.11)  -12.5700                   (X_U3.14)    -.0054                       

(X_U3.15)-5.429E-09                   (X_U3.31)     .6154                       

(X_U3.32) 615.4E+03                   (X_U3.33)     .6154                       

(X_U3.34) 615.4E+03                   (X_U3.35)     .6154                       

(X_U3.36)     .6154                   (X_U3.40)     .6154                       

(X_U3.41)     .5754                   (X_U3.42)     .6554                       

(X_U3.45)     .6153                   (X_U3.60)    -.5057                       

(X_U3.61)    0.0000                   (X_U3.62)    0.0000                       

(X_U3.98)    0.0000                   (X_U4.DIS)    0.0000                      

(SIGNAL_IN)    0.0000                 (X_U4.DRVA)    0.0000                     

(X_U4.DRVB)    0.0000                 (X_U4.NO_DT)    0.0000                    

(X_U4.PWMIN)    1.0000                (X_U4.UVLO1)    5.0000                    

(X_U4.UVLO2)    0.0000                (X_U4.INA_OK)    5.0000                   

(X_U4.INB_OK)    0.0000               (X_U4.PWMINB)    0.0000                   

(X_U4.UVLO2B)    5.0000               (X_U4.INA_INT)    4.9751                  

(X_U4.INA_OKD)    5.0000              (X_U4.INA_PRE)    5.0000                  

(X_U4.INB_OKD)    0.0000              (X_U4.INB_PRE)    0.0000                  

(X_U4.VCCI_INT)    5.0000             (FEED_ON_SIGNAL)    0.0000                

(X_U4.DRVA_PASS)    0.0000            (X_U4.DRVB_PASS)    0.0000                

(X_U4.FAULT_INP)    5.0000            (X_U4.N16668890)    8.5000                

(X_U4.N16668898)    8.5000            (X_U4.N16669068)    0.0000                

(X_U4.N16669308)-665.3E-06            (X_U4.N16669580)    5.0000                

(X_U4.N16669674)    0.0000            (X_U4.N16669834)    2.7000                

(X_U4.N16669842)    2.5000            (X_U4.N16669858)    5.0000                

(X_U4.N16670120) 90.87E-06            (X_U4.N16670154)    2.0000                

(X_U4.N16670162)-22.27E-18            (X_U4.N16670228)    0.0000                

(X_U4.N16670408)    0.0000            (X_U4.N16670672)    1.0000                

(X_U4.N16670780)    -.0013            (X_U4.N16670790)    0.0000                

(X_U4.N16670816)    4.9977            (X_U4.N16670888)    8.5000                

(X_U4.N16670896)    8.0000            (X_U4.N16671044)   12.0000                

(X_U4.N16671166)    0.0000            (X_U4.N16671236)    0.0000                

(X_U4.N16671468)    0.0000            (X_U4.N16671552) 8.020E-15                

(X_U4.N16671580)    2.0000            (X_U4.N16671640)    0.0000                

(X_U4.N16671702)    0.0000            (X_U4.N16671830)    5.0000                

(X_U4.N16671850)    0.0000            (X_U4.N16672106)    1.0000                

(X_U4.N16672276)    1.8000            (X_U4.N16672306)    1.0000                

(X_U4.N16672528)    1.0000            (X_U4.N16672594)    0.0000                

(X_U4.N16672776)  -18.0000            (X_U4.N16672784)  -30.0000                

(X_U4.N16672968)  -30.0000            (X_U4.N16673112)    0.0000                

(X_U4.N16673358)    0.0000            (X_U4.N16673432)    1.8000                

(X_U4.N16673492)    1.8000            (X_U4.N16673790)    0.0000                

(X_U4.N16698404)    5.0000            (X_U4.N16970878)    -.0013                

(X_U4.N17051744)    5.0000            (X_U4.N17051757)    5.0000                

(X_U4.N17051771)  -25.0000            (X_U4.N17088411)-503.3E-06                

(X_U4.N17110019)    5.0000            (X_U4.N17110021)    5.0000                

(X_U4.N17110038)    5.0000            (X_U4.N17127259)-3.313E-06                

(X_U4.N17153666)    5.0000            (X_U4.N17167704)  -30.0000                

(X_U4.N17167706)    5.0000            (X_U4.N17196585)    0.0000                

(X_U4.N17198437)    5.0000            (X_U4.N17201974)    5.0000                

(X_U4.N17396123)-15.66E-21            (X_U4.N17407797)    5.0000                

(X_U4.N167201110)-73.22E-21           (X_U4.N167208610)    5.0000               

(X_U4.N167216030)    5.0000           (X_U4.X_U42.YINT)    0.0000               

(X_U4.X_U43.YINT)    5.0000           (X_U4.X_U44.YINT)    5.0000               

(X_U4.X_U54.YINT)    5.0000           (X_U4.X_U61.YINT)    5.0000               

(X_U4.X_U62.YINT)    5.0000           (X_U4.DEAD_THRESH)     .0023              

(X_U4.UVLO1_DELAYED)    5.0000        (X_U4.UVLO2_DELAYED) 10.77E-18            

(X_U4.UVLO2B_DELAYED)    5.0000       




    VOLTAGE SOURCE CURRENTS
    NAME         CURRENT

    V_V1         1.996E-07
    V_V8        -1.212E-03
    V_V6        -1.124E-07
    V_V5        -4.797E-03
    V_V3        -1.932E-02
    V_V4        -1.933E-02
    V_V7        -2.060E-07
    V_V9         0.000E+00
    V_V10       -6.351E-06
    X_U1.vi1    -1.605E-11
    X_U1.vi2     1.996E-07
    X_U1.v1     -4.958E-12
    X_U2.V1      1.258E-11
    X_U2.V2      1.258E-11
    X_U2.V7     -5.189E-13
    X_U2.V8      3.514E-06
    X_U2.V5     -4.780E-14
    X_U2.V6     -4.793E-14
    X_U3.V1      1.196E-11
    X_U3.V2      1.320E-11
    X_U3.V7     -5.157E-13
    X_U3.V8      3.099E-06
    X_U3.V5     -4.782E-14
    X_U3.V6     -4.792E-14
    X_U4.V_V8   -4.010E-12
    X_U4.V_V1    0.000E+00
    X_U4.V_V10   0.000E+00
    X_U4.V_V11   0.000E+00
    X_U4.V_V6    0.000E+00
    X_U4.V_V12   0.000E+00
    X_U4.V_V13   0.000E+00
    X_U4.V_V2    0.000E+00
    X_U4.V_V14   0.000E+00
    X_U4.V_V9    0.000E+00
    X_U4.V_V7    0.000E+00
    X_U4.V_V3    0.000E+00
    X_U4.V_V5   -4.543E-02
    X_U4.X_H1.VH_H1   2.272E-03

    TOTAL POWER DISSIPATION   7.09E-01  WATTS

Convergence problem in transient analysis at Time =  22.50E-15
         Time step =  2.500E-15, minimum allowable step size =  10.00E-15

  These supply currents failed to converge:

    I(X_U1.e1)                =    1.163pA  \    2.326pA
    I(X_U1.v1)                =   -1.163pA  \   -2.326pA



  Last node voltages tried were:

 NODE   VOLTAGE     NODE   VOLTAGE     NODE   VOLTAGE     NODE   VOLTAGE


(   5V)    5.0000  (   HO)-665.3E-06  (   LO)  -30.0000  (   VS)-3.313E-06      

(  15V)   15.0000  (  OUT)-3.313E-06  (  PWM)    4.9751  (  VCC)   30.0000      

(  VEE)  -30.0000  ( -15V)  -15.0000  (ERROR)     .6153  (N16927)    -.0061     

(N16945)    -.0041 (N47439)    -.0064 (N48033)    -.0045 (N48472)    4.9977     

(N48657) 888.2E-18 (N48936)  -18.0000 (N49537)  -18.0000 (N49709)    -.0013     

(N49892)  -30.0000 (N49937)  -30.0000 (N50062)-665.3E-06 (N50090)-665.3E-06     

(N53048)    0.0000 (N53052)    0.0000 (N53118)    0.0000 (N53142)    0.0000     

(X_U1.7)    -.3892 (X_U1.8)  -14.3500 (X_U1.9)  -14.9820 (X_U2.3)    -.0041     

(X_U2.4)   14.4650 (X_U2.5)   14.4650 (X_U2.6)    -.7600 (X_U2.7)    -.7600     

(X_U2.8)   -1.2765 (X_U2.9)    -.0040 (X_U3.3)    -.0044 (X_U3.4)   14.4650     

(X_U3.5)   14.4640 (X_U3.6)    -.7604 (X_U3.7)    -.7603 (X_U3.8)   -1.2769     

(X_U3.9)     .6154 (VTRIANG)   -1.5000                   (X_U1.10)     .0179    

(X_U1.11)     .0179                   (X_U1.21)    1.0653                       

(X_U1.22)   -1.0500                   (X_U2.10)   12.5700                       

(X_U2.11)  -12.5700                   (X_U2.14)    -.0051                       

(X_U2.15)-5.092E-09                   (X_U2.31)    -.0040                       

(X_U2.32)-4036.4000                   (X_U2.33)    -.0040                       

(X_U2.34)-4036.4000                   (X_U2.35)    -.0040                       

(X_U2.36)    -.0040                   (X_U2.40)    -.0040                       

(X_U2.41)    -.0440                   (X_U2.42)     .0360                       

(X_U2.45)    -.0041                   (X_U2.60)    -.5089                       

(X_U2.61)    0.0000                   (X_U2.62)    0.0000                       

(X_U2.98)    0.0000                   (X_U3.10)   12.5700                       

(X_U3.11)  -12.5700                   (X_U3.14)    -.0054                       

(X_U3.15)-5.429E-09                   (X_U3.31)     .6154                       

(X_U3.32) 615.4E+03                   (X_U3.33)     .6154                       

(X_U3.34) 615.4E+03                   (X_U3.35)     .6154                       

(X_U3.36)     .6154                   (X_U3.40)     .6154                       

(X_U3.41)     .5754                   (X_U3.42)     .6554                       

(X_U3.45)     .6153                   (X_U3.60)    -.5057                       

(X_U3.61)    0.0000                   (X_U3.62)    0.0000                       

(X_U3.98)    0.0000                   (X_U4.DIS)    0.0000                      

(SIGNAL_IN) 276.5E-12                 (X_U4.DRVA)    0.0000                     

(X_U4.DRVB)    0.0000                 (X_U4.NO_DT)    0.0000                    

(X_U4.PWMIN)    1.0000                (X_U4.UVLO1)    5.0000                    

(X_U4.UVLO2)    0.0000                (X_U4.INA_OK)    5.0000                   

(X_U4.INB_OK)    0.0000               (X_U4.PWMINB)    0.0000                   

(X_U4.UVLO2B)    5.0000               (X_U4.INA_INT)    4.9751                  

(X_U4.INA_OKD)    5.0000              (X_U4.INA_PRE)    5.0000                  

(X_U4.INB_OKD)    0.0000              (X_U4.INB_PRE)    0.0000                  

(X_U4.VCCI_INT)    5.0000             (FEED_ON_SIGNAL)    0.0000                

(X_U4.DRVA_PASS)    0.0000            (X_U4.DRVB_PASS)    0.0000                

(X_U4.FAULT_INP)    5.0000            (X_U4.N16668890)    8.5000                

(X_U4.N16668898)    8.5000            (X_U4.N16669068)    0.0000                

(X_U4.N16669308)-665.3E-06            (X_U4.N16669580)    5.0000                

(X_U4.N16669674)    0.0000            (X_U4.N16669834)    2.7000                

(X_U4.N16669842)    2.5000            (X_U4.N16669858)    5.0000                

(X_U4.N16670120) 92.69E-06            (X_U4.N16670154)    2.0000                

(X_U4.N16670162)-22.27E-18            (X_U4.N16670228)    0.0000                

(X_U4.N16670408)    0.0000            (X_U4.N16670672)    1.0000                

(X_U4.N16670780)    -.0013            (X_U4.N16670790)    0.0000                

(X_U4.N16670816)    4.9977            (X_U4.N16670888)    8.5000                

(X_U4.N16670896)    8.0000            (X_U4.N16671044)   12.0000                

(X_U4.N16671166)    0.0000            (X_U4.N16671236)    0.0000                

(X_U4.N16671468)    0.0000            (X_U4.N16671552) 8.180E-15                

(X_U4.N16671580)    2.0000            (X_U4.N16671640)    0.0000                

(X_U4.N16671702)    0.0000            (X_U4.N16671830)    5.0000                

(X_U4.N16671850)    0.0000            (X_U4.N16672106)    1.0000                

(X_U4.N16672276)    1.8000            (X_U4.N16672306)    1.0000                

(X_U4.N16672528)    1.0000            (X_U4.N16672594)    0.0000                

(X_U4.N16672776)  -18.0000            (X_U4.N16672784)  -30.0000                

(X_U4.N16672968)  -30.0000            (X_U4.N16673112)    0.0000                

(X_U4.N16673358) 888.2E-18            (X_U4.N16673432)    1.8000                

(X_U4.N16673492)    1.8000            (X_U4.N16673790)    0.0000                

(X_U4.N16698404)    5.0000            (X_U4.N16970878)    -.0013                

(X_U4.N17051744)    5.0000            (X_U4.N17051757)    5.0000                

(X_U4.N17051771)  -25.0000            (X_U4.N17088411)-503.3E-06                

(X_U4.N17110019)    5.0000            (X_U4.N17110021)    5.0000                

(X_U4.N17110038)    5.0000            (X_U4.N17127259)-3.313E-06                

(X_U4.N17153666)    5.0000            (X_U4.N17167704)  -30.0000                

(X_U4.N17167706)    5.0000            (X_U4.N17196585)    0.0000                

(X_U4.N17198437)    5.0000            (X_U4.N17201974)    5.0000                

(X_U4.N17396123)-15.66E-21            (X_U4.N17407797)    5.0000                

(X_U4.N167201110) 1.419E-24           (X_U4.N167208610)    5.0000               

(X_U4.N167216030)    5.0000           (X_U4.X_U42.YINT)    0.0000               

(X_U4.X_U43.YINT)    5.0000           (X_U4.X_U44.YINT)    5.0000               

(X_U4.X_U54.YINT)    5.0000           (X_U4.X_U61.YINT)    5.0000               

(X_U4.X_U62.YINT)    5.0000           (X_U4.DEAD_THRESH)     .0023              

(X_U4.UVLO1_DELAYED)    5.0000        (X_U4.UVLO2_DELAYED) 10.77E-18            

(X_U4.UVLO2B_DELAYED)    5.0000       

Resuming Simulation with the following settings
ITL4 = 125
ABSTOL = 1.26e-010

Convergence problem in transient analysis at Time =  5.486E-03
         Time step =  2.453E-15, minimum allowable step size =  10.00E-15

  These supply currents failed to converge:

    I(X_U4.E_E15)             =  -151.84nA  \   -56.93nA



  Last node voltages tried were:

 NODE   VOLTAGE     NODE   VOLTAGE     NODE   VOLTAGE     NODE   VOLTAGE


(   5V)    5.0000  (   HO)  -29.9980  (   LO)  -18.0000  (   VS)  -29.9980      

(  15V)   15.0000  (  OUT)    3.1548  (  PWM)     .1017  (  VCC)   30.0000      

(  VEE)  -30.0000  ( -15V)  -15.0000  (ERROR)     .9054  (N16927)   -1.5060     

(N16945)   -1.5037 (N47439)     .0943 (N48033)     .0903 (N48472)    4.9977     

(N48657)-784.3E-15 (N48936)  -18.0000 (N49537)  -18.2170 (N49709)  -18.7900     

(N49892)  -18.0000 (N49937)  -18.0000 (N50062)  -29.9980 (N50090)  -29.9980     

(N53048)    0.0000 (N53052)    0.0000 (N53118)    0.0000 (N53142)    0.0000     

(X_U1.7)    2.0162 (X_U1.8) -141.3400 (X_U1.9)  -14.2370 (X_U2.3)   -1.5041     

(X_U2.4)   14.4640 (X_U2.5)   14.4650 (X_U2.6)   -2.2596 (X_U2.7)   -2.2600     

(X_U2.8)   -2.7763 (X_U2.9)   -1.5164 (X_U3.3)     .0963 (X_U3.4)   14.4680     

(X_U3.5)   14.4620 (X_U3.6)    -.6655 (X_U3.7)    -.6597 (X_U3.8)   -1.1791     

(X_U3.9)     .9173 (VTRIANG)    1.5000                   (X_U1.10)     .7626    

(X_U1.11)     .7626                   (X_U1.21)    1.3554                       

(X_U1.22)    1.9500                   (X_U2.10)   12.5700                       

(X_U2.11)  -12.5700                   (X_U2.14)   -1.5048                       

(X_U2.15)-1.500E-06                   (X_U2.31)   -1.5164                       

(X_U2.32)-1.516E+06                   (X_U2.33)   -1.5164                       

(X_U2.34)-1.516E+06                   (X_U2.35)   -1.5164                       

(X_U2.36)   -1.5164                   (X_U2.40)   -1.5164                       

(X_U2.41)   -1.5564                   (X_U2.42)   -1.4764                       

(X_U2.45)   -1.5037                   (X_U2.60)     .6491                       

(X_U2.61)    0.0000                   (X_U2.62)    0.0000                       

(X_U2.98)    0.0000                   (X_U3.10)   12.5700                       

(X_U3.11)  -12.5700                   (X_U3.14)     .0923                       

(X_U3.15) 22.19E-09                   (X_U3.31)     .9152                       

(X_U3.32) 915.2E+03                   (X_U3.33)     .9194                       

(X_U3.34) 919.4E+03                   (X_U3.35)     .9219                       

(X_U3.36)     .9198                   (X_U3.40)     .9182                       

(X_U3.41)     .8782                   (X_U3.42)     .9582                       

(X_U3.45)     .9054                   (X_U3.60)    -.6493                       

(X_U3.61)    0.0000                   (X_U3.62)    0.0000                       

(X_U3.98)    0.0000                   (X_U4.DIS)    0.0000                      

(SIGNAL_IN)     .0949                 (X_U4.DRVA)    0.0000                     

(X_U4.DRVB)    5.0000                 (X_U4.NO_DT)    0.0000                    

(X_U4.PWMIN)    0.0000                (X_U4.UVLO1)    5.0000                    

(X_U4.UVLO2)    5.0000                (X_U4.INA_OK)    0.0000                   

(X_U4.INB_OK)    5.0000               (X_U4.PWMINB)    1.0000                   

(X_U4.UVLO2B)    5.0000               (X_U4.INA_INT)     .1017                  

(X_U4.INA_OKD)    0.0000              (X_U4.INA_PRE)    0.0000                  

(X_U4.INB_OKD)    5.0000              (X_U4.INB_PRE)    5.0000                  

(X_U4.VCCI_INT)    5.0000             (FEED_ON_SIGNAL)    0.0000                

(X_U4.DRVA_PASS)    0.0000            (X_U4.DRVB_PASS)    5.0000                

(X_U4.FAULT_INP)    5.0000            (X_U4.N16668890)    8.5000                

(X_U4.N16668898)    8.0000            (X_U4.N16669068)    0.0000                

(X_U4.N16669308)  -29.9980            (X_U4.N16669580)    0.0000                

(X_U4.N16669674)    0.0000            (X_U4.N16669834)    2.7000                

(X_U4.N16669842)    2.5000            (X_U4.N16669858)    5.0000                

(X_U4.N16670120)    2.0004            (X_U4.N16670154)    2.0000                

(X_U4.N16670162)    5.0000            (X_U4.N16670228)    5.0000                

(X_U4.N16670408)    0.0000            (X_U4.N16670672)    1.0000                

(X_U4.N16670780)   11.2080            (X_U4.N16670790)    5.0000                

(X_U4.N16670816)    4.9977            (X_U4.N16670888)    8.5000                

(X_U4.N16670896)    8.0000            (X_U4.N16671044)   12.0000                

(X_U4.N16671166)    0.0000            (X_U4.N16671236)    0.0000                

(X_U4.N16671468)    5.0000            (X_U4.N16671552)    2.0008                

(X_U4.N16671580)    2.0000            (X_U4.N16671640)    5.0000                

(X_U4.N16671702)    5.0000            (X_U4.N16671830)-10.91E-24                

(X_U4.N16671850)    0.0000            (X_U4.N16672106)    1.0000                

(X_U4.N16672276)    1.8000            (X_U4.N16672306)    1.8000                

(X_U4.N16672528)    0.0000            (X_U4.N16672594)    5.0000                

(X_U4.N16672776)  -18.0000            (X_U4.N16672784)   -6.0000                

(X_U4.N16672968)  -18.0000            (X_U4.N16673112)    5.0000                

(X_U4.N16673358)-784.3E-15            (X_U4.N16673432)    1.8000                

(X_U4.N16673492)    1.8000            (X_U4.N16673790)    1.0000                

(X_U4.N16698404)    5.0000            (X_U4.N16970878)  -18.7900                

(X_U4.N17051744) 1.382E-24            (X_U4.N17051757)    0.0000                

(X_U4.N17051771)  -30.0000            (X_U4.N17088411)  -29.9980                

(X_U4.N17110019)    5.0000            (X_U4.N17110021)    5.0000                

(X_U4.N17110038)  -24.9980            (X_U4.N17127259)  -29.9980                

(X_U4.N17153666)    5.0000            (X_U4.N17167704)  -18.0000                

(X_U4.N17167706)    0.0000            (X_U4.N17196585)    5.0000                

(X_U4.N17198437)    5.0000            (X_U4.N17201974)    5.0000                

(X_U4.N17396123)    5.0000            (X_U4.N17407797)-3.943E-18                

(X_U4.N167201110)    5.0000           (X_U4.N167208610)    5.0000               

(X_U4.N167216030)    5.0000           (X_U4.X_U42.YINT)    5.0000               

(X_U4.X_U43.YINT)    5.0000           (X_U4.X_U44.YINT)    5.0000               

(X_U4.X_U54.YINT)    5.0000           (X_U4.X_U61.YINT)    5.0000               

(X_U4.X_U62.YINT)    0.0000           (X_U4.DEAD_THRESH)     .0023              

(X_U4.UVLO1_DELAYED)    5.0000        (X_U4.UVLO2_DELAYED)    5.0000            

(X_U4.UVLO2B_DELAYED)    5.0000       

Resuming Simulation with the following settings
ITL4 = 1000
ABSTOL = 1.58e-008



          JOB CONCLUDED
 AutoConverge Simulator Options
 ITL1 = 150
 ITL2 = 20
 ITL4 = 1000
 RELTOL = 0.001
 ABSTOL = 1.58489e-008
 VNTOL = 1e-006
 PIVTOL = 1e-013

**** 07/29/21 01:27:39 ****** PSpice 17.2.0 (March 2016) ****** ID# 0 ********

 ** Profile: "Esquematico-Transient"  [ C:\Users\Emanuel\Desktop\DCE-Amplificador-Clase-D\Amplificador\amplificador clase d-pspicefil


 ****     JOB STATISTICS SUMMARY


******************************************************************************



  Total job time (using Solver 1)   =      781.99
