
**** 06/10/21 00:51:06 ****** PSpice 17.2.0 (March 2016) ****** ID# 0 ********

 ** Profile: "Esquematico-Transient"  [ C:\Users\Emanuel\Desktop\Amplificador\amplificador clase d-pspicefiles\esquematico\transient.


 ****     CIRCUIT DESCRIPTION


******************************************************************************




** Creating circuit file "Transient.cir" 
** WARNING: THIS AUTOMATICALLY GENERATED FILE MAY BE OVERWRITTEN BY SUBSEQUENT SIMULATIONS

*Libraries: 
* Profile Libraries :
* Local Libraries :
.LIB "../../../libraries/phb27nq10t/phb27nq10t.lib" 
.LIB "../../../libraries/ucc20520_pspice_trans/ucc20520_trans.lib" 
* From [PSPICE NETLIST] section of C:\Users\Emanuel\AppData\Roaming\SPB_Data\cdssetup\OrCAD_PSpice\17.2.0\PSpice.ini file:
.lib "nom.lib" 

*Analysis directives: 
.TRAN  0 21m 1m 
.FOUR 1k 6 V([OUT]) 
.OPTIONS NOMOD
.OPTIONS ADVCONV
.OPTIONS NUMDGT= 15
.OPTIONS METHOD= Default
.OPTIONS GMINSTEPS= 0
.OPTIONS SPEED_LEVEL= 0
.AUTOCONVERGE ITL1=1000 ITL2=1000 ITL4=1000 RELTOL=0.05 ABSTOL=1.0E-6 VNTOL=.001 PIVTOL=1.0E-10 
.PROBE64 V(alias(*)) I(alias(*)) W(alias(*)) D(alias(*)) NOISE(alias(*)) 
.INC "..\Esquematico.net" 



**** INCLUDING Esquematico.net ****
* source AMPLIFICADOR CLASE D
X_U1         ERROR VTRIANG 15V -15V PWM 0 LM311
R_R1         PWM 5V  1k TC=0,0 
V_V1         VTRIANG 0  
+PULSE -1.5 1.5 1p 2.5u 2.5u 1p 5u
V_V2         SIGNAL_IN 0 DC 0 AC 0
+SIN 0 1.1 1k 1p 0 0
R_R3         0 N16927  1k TC=0,0 
R_R2         N16927 N16939  19k TC=0,0 
X_U2         N16927 N16945 15V -15V N16945 AD817A/AD
R_R18         N66927 N47439  1k TC=0,0 
C_C17         0 N47439  220p  TC=0,0 
R_R19         0 N47439  82k TC=0,0 
X_U3         N47439 N48033 15V -15V N47882 AD817A/AD
R_R20         N48033 N16945  1k TC=0,0 
R_R21         N48033 N47882  82k TC=0,0 
C_C18         N47882 N48033  220p  TC=0,0 
X_U4         N48657 N48472 0 N53048 N53052 N53118 N53142 HO LO PWM 5V 5V N49709
+  N48936 VS VEE UCC20520_TRANS
R_R22         0 N48472  2.2k TC=0,0 
C_C19         0 N48472  2.2n  TC=0,0 
R_R23         0 N48657  20 TC=0,0 
C_C20         N48657 5V  1u  TC=0,0 
V_V8         N48936 VEE 12
V_V6         VCC 0 30
V_V5         5V 0 5
V_V3         15V 0 15
V_V4         0 -15V 15
V_V7         0 VEE 30
R_R24         N48936 N49537  10 TC=0,0 
C_C21         VS N49709  100n  TC=0,0 
R_R25         N49892 LO  3.3 TC=0,0 
R_R26         N49892 N49937  1.2 TC=0,0 
R_R27         N50090 N50062  1.2 TC=0,0 
R_R28         N50090 HO  3.3 TC=0,0 
C_C22         VEE N49892  1n  TC=0,0 
C_C23         VS N50090  1n  TC=0,0 
C_C24         0 OUT  330n  TC=0,0 
R_R29         0 OUT  8 TC=0,0 
L_L1         VS OUT  33u  
R_R30         N53048 0  2.2k TC=0,0 
R_R31         N53052 0  2.2k TC=0,0 
R_R33         N53142 0  2.2k TC=0,0 
R_R32         N53118 0  2.2k TC=0,0 
C_C25         VS N49709  330n  TC=0,0 
C_C26         VEE N48936  100n  TC=0,0 
C_C27         VEE N48936  10u  TC=0,0 
C_C28         0 VCC  3300u  TC=0,0 
C_C29         VEE 0  3300u  TC=0,0 
X_S1    FEED_ON_SIGNAL 0 N16939 VS Esquematico_S1 
X_S2    FEED_ON_SIGNAL 0 N47882 ERROR Esquematico_S2 
X_S3    FEED_ON_SIGNAL 0 SIGNAL_IN ERROR Esquematico_S3 
X_S4    FEED_ON_SIGNAL 0 SIGNAL_IN N66927 Esquematico_S4 
V_V9         FEED_ON_SIGNAL 0  
+PULSE 1 0 20m 1p 1p 20m 20m
D_D7         N50062 HO MURS320T3G 
D_D8         N49937 LO MURS320T3G 
D_D9         N49537 N49709 MURS320T3G 
D_D10         VEE VS MURS320T3G 
D_D11         VS VCC MURS320T3G 
X_U5         VCC N50090 VS PHB27NQ10T
X_U6         VS N49892 VEE PHB27NQ10T
.NODESET         V([VS ])=0
.NODESET         V([OUT ])=0
.PARAM  r_paralela_diodo=500meg r_paralela_mosfet=500meg

.subckt Esquematico_S1 1 2 3 4  
S_S1         3 4 1 2 _S1
RS_S1         1 2 1G
.MODEL         _S1 VSWITCH Roff=1e6 Ron=1.0 Voff=0.0V Von=1
.ends Esquematico_S1

.subckt Esquematico_S2 1 2 3 4  
S_S2         3 4 1 2 _S2
RS_S2         1 2 1G
.MODEL         _S2 VSWITCH Roff=1e6 Ron=1.0 Voff=0.0V Von=1.0V
.ends Esquematico_S2

.subckt Esquematico_S3 1 2 3 4  
S_S3         3 4 1 2 _S3
RS_S3         1 2 1G
.MODEL         _S3 VSWITCH Roff=1e6 Ron=1.0 Voff=1 Von=0
.ends Esquematico_S3

.subckt Esquematico_S4 1 2 3 4  
S_S4         3 4 1 2 _S4
RS_S4         1 2 1G
.MODEL         _S4 VSWITCH Roff=1e6 Ron=1.0 Voff=0.0V Von=1.0V
.ends Esquematico_S4

**** RESUMING Transient.cir ****
.END

**** 06/10/21 00:51:06 ****** PSpice 17.2.0 (March 2016) ****** ID# 0 ********

 ** Profile: "Esquematico-Transient"  [ C:\Users\Emanuel\Desktop\Amplificador\amplificador clase d-pspicefiles\esquematico\transient.


 ****     INITIAL TRANSIENT SOLUTION       TEMPERATURE =   27.000 DEG C


******************************************************************************



 NODE   VOLTAGE     NODE   VOLTAGE     NODE   VOLTAGE     NODE   VOLTAGE


(   5V) 5.0000000000                  (   HO)-665.3384082E-06                   

(   LO)-30.0000000000                 (   VS)-3.312530381E-06                   

(  15V) 15.0000000000                 (  OUT)-3.312530381E-06                   

(  PWM) 4.9751243682                  (  VCC) 30.0000000000                     

(  VEE)-30.0000000000                 ( -15V)-15.0000000000                     

(ERROR) .5066856237                   (N16927)-.0060934420                      

(N16939)-3.633046643E-06              (N16945)-.0040926756                      

(N47439)-.0063437097                  (N47882) .5066861304                      

(N48033)-.0044722313                  (N48472) 4.9977283003                     

(N48657) 0.0000000000                 (N48936)-18.0000000000                    

(N49537)-17.9999990650                (N49709)-.0013251551                      

(N49892)-30.0000000000                (N49937)-30.0000000000                    

(N50062)-665.3384082E-06              (N50090)-665.3384082E-06                  

(N53048) 0.0000000000                 (N53052) 0.0000000000                     

(N53118) 0.0000000000                 (N53142) 0.0000000000                     

(N66927)-6.337372282E-06              (X_U1.7)-.3891808636                      

(X_U1.8)-14.3497023010                (X_U1.9)-14.9820722860                    

(X_U2.3)-.0040936973                  (X_U2.4) 14.4645671400                    

(X_U2.5) 14.4645681480                (X_U2.6)-.7600342101                      

(X_U2.7)-.7600351831                  (X_U2.8)-1.2765347037                     

(X_U2.9)-.0040367475                  (X_U3.3)-.0043439807                      

(X_U3.4) 14.4646309500                (X_U3.5) 14.4645043380                    

(X_U3.6)-.7604106833                  (X_U3.7)-.7602885489                      

(X_U3.8)-1.2768496232                 (X_U3.9) .5067425869                      

(VTRIANG)-1.5000000000                (X_U1.10) .0179277136                     

(X_U1.11) .0179277136                 (X_U1.21) .9566856237                     

(X_U1.22)-1.0500000000                (X_U2.10) 12.5700000000                   

(X_U2.11)-12.5700000000               (X_U2.14)-.0050930588                     

(X_U2.15)-5.093053742E-09             (X_U2.31)-.0040367435                     

(X_U2.32)-4036.7434572000             (X_U2.33)-.0040367394                     

(X_U2.34)-4036.7394205000             (X_U2.35)-.0040367354                     

(X_U2.36)-.0040367313                 (X_U2.40)-.0040367274                     

(X_U2.41)-.0440367274                 (X_U2.42) .0359632726                     

(X_U2.45)-.0040926756                 (X_U2.60)-.5088136716                     

(X_U2.61) 0.0000000000                (X_U2.62) 0.0000000000                    

(X_U2.98) 0.0000000000                (X_U3.10) 12.5700000000                   

(X_U3.11)-12.5700000000               (X_U3.14)-.0054079705                     

(X_U3.15)-5.407965093E-09             (X_U3.31) .5067420802                     

(X_U3.32) 506.7420802E+03             (X_U3.33) .5067415734                     

(X_U3.34) 506.7415734E+03             (X_U3.35) .5067410667                     

(X_U3.36) .5067405600                 (X_U3.40) .5067400531                     

(X_U3.41) .4667400531                 (X_U3.42) .5467400531                     

(X_U3.45) .5066861304                 (X_U3.60)-.5078599457                     

(X_U3.61) 0.0000000000                (X_U3.62) 0.0000000000                    

(X_U3.98) 0.0000000000                (X_U4.DIS) 0.0000000000                   

(SIGNAL_IN) 0.0000000000              (X_U4.DRVA) 0.0000000000                  

(X_U4.DRVB) 0.0000000000              (X_U4.NO_DT) 0.0000000000                 

(X_U4.PWMIN) 1.0000000000             (X_U4.UVLO1) 5.0000000000                 

(X_U4.UVLO2) 0.0000000000             (X_U4.INA_OK) 5.0000000000                

(X_U4.INB_OK) 0.0000000000            (X_U4.PWMINB) 0.0000000000                

(X_U4.UVLO2B) 5.0000000000            (X_U4.INA_INT) 4.9751243682               

(X_U4.INA_OKD) 5.0000000000           (X_U4.INA_PRE) 5.0000000000               

(X_U4.INB_OKD) 0.0000000000           (X_U4.INB_PRE) 0.0000000000               

(X_U4.VCCI_INT) 5.0000000000          (FEED_ON_SIGNAL) 1.0000000000             

(X_U4.DRVA_PASS) 0.0000000000         (X_U4.DRVB_PASS) 0.0000000000             

(X_U4.FAULT_INP) 5.0000000000         (X_U4.N16668890) 8.5000000000             

(X_U4.N16668898) 8.5000000000         (X_U4.N16669068) 0.0000000000             

(X_U4.N16669308)-665.3384082E-06      (X_U4.N16669580) 5.0000000000             

(X_U4.N16669674) 0.0000000000         (X_U4.N16669834) 2.7000000000             

(X_U4.N16669842) 2.5000000000         (X_U4.N16669858) 5.0000000000             

(X_U4.N16670120) 90.86798720E-06      (X_U4.N16670154) 2.0000000000             

(X_U4.N16670162)-22.27009432E-18      (X_U4.N16670228) 0.0000000000             

(X_U4.N16670408) 0.0000000000         (X_U4.N16670672) 1.0000000000             

(X_U4.N16670780)-.0013218426          (X_U4.N16670790) 0.0000000000             

(X_U4.N16670816) 4.9977283003         (X_U4.N16670888) 8.5000000000             

(X_U4.N16670896) 8.0000000000         (X_U4.N16671044) 12.0000000000            

(X_U4.N16671166) 0.0000000000         (X_U4.N16671236) 0.0000000000             

(X_U4.N16671468) 0.0000000000         (X_U4.N16671552) 8.020000000E-15          

(X_U4.N16671580) 2.0000000000         (X_U4.N16671640) 0.0000000000             

(X_U4.N16671702) 0.0000000000         (X_U4.N16671830) 5.0000000000             

(X_U4.N16671850) 0.0000000000         (X_U4.N16672106) 1.0000000000             

(X_U4.N16672276) 1.8000000000         (X_U4.N16672306) 1.0000000000             

(X_U4.N16672528) 1.0000000000         (X_U4.N16672594) 0.0000000000             

(X_U4.N16672776)-18.0000000000        (X_U4.N16672784)-30.0000000000            

(X_U4.N16672968)-30.0000000000        (X_U4.N16673112) 0.0000000000             

(X_U4.N16673358) 0.0000000000         (X_U4.N16673432) 1.8000000000             

(X_U4.N16673492) 1.8000000000         (X_U4.N16673790) 0.0000000000             

(X_U4.N16698404) 5.0000000000         (X_U4.N16970878)-.0013251489              

(X_U4.N17051744) 5.0000000000         (X_U4.N17051757) 5.0000000000             

(X_U4.N17051771)-25.0000000000        (X_U4.N17088411)-503.3259574E-06          

(X_U4.N17110019) 5.0000000000         (X_U4.N17110021) 5.0000000000             

(X_U4.N17110038) 4.9999966875         (X_U4.N17127259)-3.312536990E-06          

(X_U4.N17153666) 4.9999999950         (X_U4.N17167704)-29.9999999400            

(X_U4.N17167706) 4.9999999950         (X_U4.N17196585) 0.0000000000             

(X_U4.N17198437) 5.0000000000         (X_U4.N17201974) 5.0000000000             

(X_U4.N17396123)-15.66291528E-21      (X_U4.N17407797) 5.0000000000             

(X_U4.N167201110)-73.22005915E-21     (X_U4.N167208610) 5.0000000000            

(X_U4.N167216030) 5.0000000000        (X_U4.X_U42.YINT) 0.0000000000            

(X_U4.X_U43.YINT) 5.0000000000        (X_U4.X_U44.YINT) 5.0000000000            

(X_U4.X_U54.YINT) 5.0000000000        (X_U4.X_U61.YINT) 5.0000000000            

(X_U4.X_U62.YINT) 5.0000000000        (X_U4.DEAD_THRESH) .0022716997            

(X_U4.UVLO1_DELAYED) 5.0000000000     (X_U4.UVLO2_DELAYED) 10.76765576E-18      

(X_U4.UVLO2B_DELAYED) 5.0000000000    




    VOLTAGE SOURCE CURRENTS
    NAME         CURRENT

    V_V1         1.996E-07
    V_V2        -5.831E-06
    V_V8        -1.212E-03
    V_V6        -1.124E-07
    V_V5        -4.797E-03
    V_V3        -1.932E-02
    V_V4        -1.933E-02
    V_V7        -2.060E-07
    V_V9        -4.004E-09
    X_U1.vi1    -1.594E-11
    X_U1.vi2     1.996E-07
    X_U1.v1     -4.958E-12
    X_U2.V1      1.258E-11
    X_U2.V2      1.258E-11
    X_U2.V7     -5.188E-13
    X_U2.V8      3.497E-06
    X_U2.V5     -4.781E-14
    X_U2.V6     -4.793E-14
    X_U3.V1      1.207E-11
    X_U3.V2      1.309E-11
    X_U3.V7     -5.179E-13
    X_U3.V8      3.370E-06
    X_U3.V5     -4.781E-14
    X_U3.V6     -4.793E-14
    X_U4.V_V8   -4.010E-12
    X_U4.V_V1    0.000E+00
    X_U4.V_V10   0.000E+00
    X_U4.V_V11   0.000E+00
    X_U4.V_V6    0.000E+00
    X_U4.V_V12   0.000E+00
    X_U4.V_V13   0.000E+00
    X_U4.V_V2    0.000E+00
    X_U4.V_V14   0.000E+00
    X_U4.V_V9    0.000E+00
    X_U4.V_V7    0.000E+00
    X_U4.V_V3    0.000E+00
    X_U4.V_V5   -4.543E-02
    X_U4.X_H1.VH_H1   2.272E-03

    TOTAL POWER DISSIPATION   7.09E-01  WATTS

Time step =  5.659E-15 is too small in Transient Analysis at
Time =  1.793E-06.  Minimum allowable step size =  21.00E-15.
         The device which is changing too fast is X_U4.C_C33.



  Last node voltages tried were:

 NODE   VOLTAGE     NODE   VOLTAGE     NODE   VOLTAGE     NODE   VOLTAGE


(   5V) 5.0000000000                  (   HO)-665.3384083E-06                   

(   LO)-30.0000000000                 (   VS)-3.312530428E-06                   

(  15V) 15.0000000000                 (  OUT)-3.312530110E-06                   

(  PWM) .1433551224                   (  VCC) 30.0000000000                     

(  VEE)-30.0000000000                 ( -15V)-15.0000000000                     

(ERROR) .5545483975                   (N16927)-.0060934407                      

(N16939)-3.633046621E-06              (N16945)-.0040924565                      

(N47439) .0044127943                  (N47882) .5545487446                      

(N48033) .0060831905                  (N48472) 4.9977283003                     

(N48657) 60.39613254E-15              (N48936)-18.0000000000                    

(N49537)-17.9999990650                (N49709)-.0013251551                      

(N49892)-30.0000000000                (N49937)-30.0000000000                    

(N50062)-665.3384083E-06              (N50090)-665.3384082E-06                  

(N53048) 0.0000000000                 (N53052) 0.0000000000                     

(N53118) 0.0000000000                 (N53142) 0.0000000000                     

(N66927) .0123843188                  (X_U1.7) 1.6647686063                     

(X_U1.8)-14.4369101210                (X_U1.9)-14.2381004940                    

(X_U2.3)-.0040936932                  (X_U2.4) 14.4645670320                    

(X_U2.5) 14.4645682560                (X_U2.6)-.7600339961                      

(X_U2.7)-.7600351738                  (X_U2.8)-1.2765345921                     

(X_U2.9)-.0041209392                  (X_U3.3) .0064164634                      

(X_U3.4) 14.4647320990                (X_U3.5) 14.4644031890                    

(X_U3.6)-.7498503724                  (X_U3.7)-.7495329925                      

(X_U3.8)-1.2661916895                 (X_U3.9) .5546574400                      

(VTRIANG) .6516392551                 (X_U1.10) .7618995065                     

(X_U1.11) .7618995065                 (X_U1.21) 1.0045483975                    

(X_U1.22) 1.1016392551                (X_U2.10) 12.5700000000                   

(X_U2.11)-12.5700000000               (X_U2.14)-.0050929486                     

(X_U2.15)-5.037931647E-09             (X_U2.31)-.0041208639                     

(X_U2.32)-4120.8639122000             (X_U2.33)-.0041210020                     

(X_U2.34)-4121.0019985000             (X_U2.35)-.0041210897                     

(X_U2.36)-.0041210079                 (X_U2.40)-.0041209503                     

(X_U2.41)-.0441209503                 (X_U2.42) .0358790497                     

(X_U2.45)-.0040924569                 (X_U2.60) .4913617076                     

(X_U2.61) 0.0000000000                (X_U2.62) 0.0000000000                    

(X_U2.98) 0.0000000000                (X_U3.10) 12.5700000000                   

(X_U3.11)-12.5700000000               (X_U3.14) .0052479924                     

(X_U3.15) 73.20713857E-09             (X_U3.31) .5545871215                     

(X_U3.32) 554.5871215E+03             (X_U3.33) .5547259893                     

(X_U3.34) 554.7259893E+03             (X_U3.35) .5548097098                     

(X_U3.36) .5547387792                 (X_U3.40) .5546858216                     

(X_U3.41) .5146858216                 (X_U3.42) .5946858216                     

(X_U3.45) .5545487450                 (X_U3.60)-.5319909282                     

(X_U3.61) 0.0000000000                (X_U3.62) 0.0000000000                    

(X_U3.98) 0.0000000000                (X_U4.DIS) 0.0000000000                   

(SIGNAL_IN) .0123922903               (X_U4.DRVA) 0.0000000000                  

(X_U4.DRVB) 0.0000000000              (X_U4.NO_DT) 0.0000000000                 

(X_U4.PWMIN) 0.0000000000             (X_U4.UVLO1) 5.0000000000                 

(X_U4.UVLO2) 0.0000000000             (X_U4.INA_OK) 2.5007752866                

(X_U4.INB_OK) 2.4992247134            (X_U4.PWMINB) 1.0000000000                

(X_U4.UVLO2B) 5.0000000000            (X_U4.INA_INT) .1433551224                

(X_U4.INA_OKD) 2.5007752866           (X_U4.INA_PRE) 0.0000000000               

(X_U4.INB_OKD) 2.4992247134           (X_U4.INB_PRE) 5.0000000000               

(X_U4.VCCI_INT) 5.0000000000          (FEED_ON_SIGNAL) 1.0000000000             

(X_U4.DRVA_PASS) 5.0000000000         (X_U4.DRVB_PASS) 0.0000000000             

(X_U4.FAULT_INP) 5.0000000000         (X_U4.N16668890) 8.5000000000             

(X_U4.N16668898) 8.5000000000         (X_U4.N16669068) 0.0000000000             

(X_U4.N16669308)-665.3384083E-06      (X_U4.N16669580) 2.5007752866             

(X_U4.N16669674) 0.0000000000         (X_U4.N16669834) 2.7000000000             

(X_U4.N16669842) 2.5000000000         (X_U4.N16669858) 5.0000000000             

(X_U4.N16670120) 2.0007538039         (X_U4.N16670154) 2.0000000000             

(X_U4.N16670162) 2.4984679169         (X_U4.N16670228) 5.0000000000             

(X_U4.N16670408) 0.0000000000         (X_U4.N16670672) 1.0000000000             

(X_U4.N16670780)-.0013218426          (X_U4.N16670790) 0.0000000000             

(X_U4.N16670816) 4.9977283003         (X_U4.N16670888) 8.5000000000             

(X_U4.N16670896) 8.0000000000         (X_U4.N16671044) 12.0000000000            

(X_U4.N16671166) 0.0000000000         (X_U4.N16671236) 0.0000000000             

(X_U4.N16671468) 5.0000000000         (X_U4.N16671552) 7.190067018E-09          

(X_U4.N16671580) 2.0000000000         (X_U4.N16671640) 0.0000000000             

(X_U4.N16671702) 0.0000000000         (X_U4.N16671830) 4.8492726962             

(X_U4.N16671850) 0.0000000000         (X_U4.N16672106) 1.0000000000             

(X_U4.N16672276) 1.8000000000         (X_U4.N16672306) 1.8000000000             

(X_U4.N16672528) .0604359058          (X_U4.N16672594) 0.0000000000             

(X_U4.N16672776)-18.0000000000        (X_U4.N16672784)-30.0000000000            

(X_U4.N16672968)-30.0000000000        (X_U4.N16673112) 2.4992247134             

(X_U4.N16673358) 60.39613254E-15      (X_U4.N16673432) 1.8000000000             

(X_U4.N16673492) 1.8000000000         (X_U4.N16673790) .9395640942              

(X_U4.N16698404) 5.0000000000         (X_U4.N16970878)-.0013251489              

(X_U4.N17051744) 5.0000000000         (X_U4.N17051757) 5.0000000000             

(X_U4.N17051771)-25.0000000000        (X_U4.N17088411)-503.3259575E-06          

(X_U4.N17110019) 5.0000000000         (X_U4.N17110021) 5.0000000000             

(X_U4.N17110038) 4.9999966875         (X_U4.N17127259)-3.312537037E-06          

(X_U4.N17153666) 4.9999999950         (X_U4.N17167704)-29.9999999400            

(X_U4.N17167706) 4.9999999950         (X_U4.N17196585) 0.0000000000             

(X_U4.N17198437) 5.0000000000         (X_U4.N17201974) 5.0000000000             

(X_U4.N17396123) 2.4984679222         (X_U4.N17407797) 4.7463746793             

(X_U4.N167201110) 1.384361771E-24     (X_U4.N167208610) 5.0000000000            

(X_U4.N167216030) 5.0000000000        (X_U4.X_U42.YINT) 0.0000000000            

(X_U4.X_U43.YINT) 5.0000000000        (X_U4.X_U44.YINT) 5.0000000000            

(X_U4.X_U54.YINT) 5.0000000000        (X_U4.X_U61.YINT) 5.0000000000            

(X_U4.X_U62.YINT) 5.0000000000        (X_U4.DEAD_THRESH) .0022716997            

(X_U4.UVLO1_DELAYED) 5.0000000000     (X_U4.UVLO2_DELAYED) 10.50335625E-18      

(X_U4.UVLO2B_DELAYED) 5.0000000000    

Resuming Simulation with the following settings
ITL4 = 1000
RELTOL = 0.0086


**** 06/10/21 00:51:06 ****** PSpice 17.2.0 (March 2016) ****** ID# 0 ********

 ** Profile: "Esquematico-Transient"  [ C:\Users\Emanuel\Desktop\Amplificador\amplificador clase d-pspicefiles\esquematico\transient.


 ****     FOURIER ANALYSIS                 TEMPERATURE =   27.000 DEG C


******************************************************************************



FOURIER COMPONENTS OF TRANSIENT RESPONSE V(OUT)



 DC COMPONENT =  -1.6386031673E+00

 HARMONIC   FREQUENCY                FOURIER                NORMALIZED                PHASE                NORMALIZED
    NO         (HZ)                 COMPONENT                COMPONENT                (DEG)                PHASE (DEG)

     1    1.0000000000E+03   2.2086152458E+01   1.0000000000E+00  -1.3752075005E+00   0.0000000000E+00
     2    2.0000000000E+03   5.5849466580E-01   2.5287096377E-02  -8.8544551624E+01  -8.5794136623E+01
     3    3.0000000000E+03   8.0570229147E-02   3.6479975088E-03   6.4705121881E+01   6.8830744383E+01
     4    4.0000000000E+03   6.9463140687E-02   3.1450992118E-03   6.4994925528E+01   7.0495755530E+01
     5    5.0000000000E+03   2.5581785497E-02   1.1582726120E-03  -1.5603215709E+02  -1.4915611958E+02
     6    6.0000000000E+03   4.3386779123E-02   1.9644335610E-03   9.8254515910E+01   1.0650576091E+02


     TOTAL HARMONIC DISTORTION =   2.5842549656E+00 PERCENT


          JOB CONCLUDED
 AutoConverge Simulator Options
 ITL1 = 150
 ITL2 = 20
 ITL4 = 100
 RELTOL = 0.00859871
 ABSTOL = 1e-012
 VNTOL = 1e-006
 PIVTOL = 1e-013

**** 06/10/21 00:51:06 ****** PSpice 17.2.0 (March 2016) ****** ID# 0 ********

 ** Profile: "Esquematico-Transient"  [ C:\Users\Emanuel\Desktop\Amplificador\amplificador clase d-pspicefiles\esquematico\transient.


 ****     JOB STATISTICS SUMMARY


******************************************************************************



  Total job time (using Solver 1)   =     1641.14
