Circuit: * C:\Users\Emanuel\Desktop\DCE-Amplificador-Clase-D\Calculo de realimentador\Delay\Delay - Comparador.asc

Direct Newton iteration for .op point succeeded.

Date: Wed Jun 23 17:33:12 2021
Total elapsed time: 0.034 seconds.

tnom = 27
temp = 27
method = modified trap
totiter = 3468
traniter = 3447
tranpoints = 1231
accept = 1176
rejected = 55
matrix size = 22
fillins = 4
solver = Normal
Matrix Compiler1: 864 bytes object code size  0.2/0.1/[0.1]
Matrix Compiler2: 1.57 KB object code size  0.1/0.2/[0.1]

