Circuit: * C:\Users\Emanuel\Desktop\DCE-Amplificador-Clase-D\Calculo de realimentador\Delay\Delay-GateDriver.asc

Questionable use of curly braces in "b§e_abmgate yint 0 v={if(v(a)>{{vthresh}},{{vss}},{{vdd}})}"
    Error: undefined symbol in: "if([v](a)>((vthresh)),((vss)),((vdd)))"
Questionable use of curly braces in "b§e_abmgate yint 0 v={if(v(a)>{{vthresh}}&v(b)>{{vthresh}},{{vdd}},{{vss}})}"
    Error: undefined symbol in: "if([v](a)>((vthresh))&v(b)>((vthresh)),((vdd)),((vss)))"
Questionable use of curly braces in "b§e_abmgate yint 0 v={if(v(a)>{{vthresh}}&v(b)>{{vthresh}},{{vdd}},{{vss}})}"
    Error: undefined symbol in: "if([v](a)>((vthresh))&v(b)>((vthresh)),((vdd)),((vss)))"
Questionable use of curly braces in "b§e_abmgate yint 0 v={if(v(a)>{{vthresh}},{{vss}},{{vdd}})}"
    Error: undefined symbol in: "if([v](a)>((vthresh)),((vss)),((vdd)))"
Questionable use of curly braces in "b§e_abmgate yint 0 v={if(v(a)>{{vthresh}}&v(b)>{{vthresh}},{{vdd}},{{vss}})}"
    Error: undefined symbol in: "if([v](a)>((vthresh))&v(b)>((vthresh)),((vdd)),((vss)))"
Questionable use of curly braces in "b§e_abmgate yint 0 v={if(v(a)>{{vthresh}},{{vss}},{{vdd}})}"
    Error: undefined symbol in: "if([v](a)>((vthresh)),((vss)),((vdd)))"
WARNING: Less than two connections to node NC_03.  This node is used by V:U1:_V11.
WARNING: Less than two connections to node NC_02.  This node is used by V:U1:_V12.
WARNING: Less than two connections to node NC_01.  This node is used by V:U1:_V13.
WARNING: Less than two connections to node NC_04.  This node is used by V:U1:_V14.
Instance "m:u1:_m12:1": Length shorter than recommended for a level 1 MOSFET.
Instance "m:u1:_m14:1": Length shorter than recommended for a level 1 MOSFET.
Instance "m:u1:_m15:1": Length shorter than recommended for a level 1 MOSFET.
Instance "m:u1:_m13:1": Length shorter than recommended for a level 1 MOSFET.
Direct Newton iteration for .op point succeeded.
Ignoring empty pin current: Ix(u1:vcci_1)
Ignoring empty pin current: Ix(u1:vcci_1)
Heightened Def Con from 4.40281e-008 +++++++++++++++++++++++++++++++to 4.4155e-008
Heightened Def Con from 1.26859e-006 to 1.27162e-006
Heightened Def Con from 1.29461e-006 +++++++++++++++++++++++++++++++to 1.29563e-006
Heightened Def Con from 2.54491e-006 +++++++++++++++++++++++++++++++to 2.54592e-006
Heightened Def Con from 3.76859e-006 to 3.77162e-006
Heightened Def Con from 3.79469e-006 +++++++++++++++++++++++++++++++to 3.79481e-006
Heightened Def Con from 5.04542e-006 +++++++++++++++++++++++++++++++to 5.04554e-006
Heightened Def Con from 6.26859e-006 to 6.27162e-006
Heightened Def Con from 6.29469e-006 +++++++++++++++++++++++++++++++to 6.29481e-006
Heightened Def Con from 7.54531e-006 +++++++++++++++++++++++++++++++to 7.54544e-006
Heightened Def Con from 8.76859e-006 to 8.77162e-006
Heightened Def Con from 8.79469e-006 +++++++++++++++++++++++++++++++to 8.79481e-006

Date: Wed Jun 23 17:23:14 2021
Total elapsed time: 0.515 seconds.

tnom = 27
temp = 27
method = modified trap
totiter = 48777
traniter = 48769
tranpoints = 7998
accept = 4651
rejected = 3607
matrix size = 180
fillins = 69
solver = Normal
Thread vector: 8.6/5.6[3] 1.8/3.1[1] 3.6/1.7[3] 0.3/1.2[1]  2592/500
Matrix Compiler1: 7.53 KB object code size  1.5/0.9/[0.4]
Matrix Compiler2: 12.28 KB object code size  0.6/1.4/[0.4]

